geometry optimzed in LAMMPS
_audit_creation_date              2020-11-30 
_audit_creation_method            'lammps2cif' 
_symmetry_space_group_name_H-M    'P1' 
_symmetry_Int_Tables_number       1 
_symmetry_cell_setting            triclinic 
loop_ 
_symmetry_equiv_pos_as_xyz 
  x,y,z 
_cell_length_a                    25.37889347 
_cell_length_b                    25.78399869328528 
_cell_length_c                    26.070571629838625 
_cell_angle_alpha                 90.09527332745262 
_cell_angle_beta                  89.50925295815634 
_cell_angle_gamma                 91.62883962991611 
loop_ 
_atom_site_label 
_atom_site_type_symbol 
_atom_site_fract_x 
_atom_site_fract_y 
_atom_site_fract_z 
_atom_site_charge 
O1          O  0.00751383  0.91868726  0.79106995    -0.72100
O2          O  0.00795272  0.06877764  0.79642822    -0.72300
O3          O  0.93374219  0.99216296  0.79785359    -0.72200
O4          O  0.08189953  0.99523438  0.79523385    -0.72200
O5          O  0.08349079  0.99772010  0.71205527    -0.72100
O6          O  0.93075062  0.99671535  0.71504153    -0.72200
O7          O  0.00945517  0.06939970  0.71313027    -0.72100
O8          O  0.00564299  0.92373774  0.70825709    -0.72300
V9          V  0.00781076  0.99370683  0.79352756     1.35200
V10         V  0.00723212  0.99660456  0.71373018     1.35200
C11         C  0.00644477  0.89575061  0.74764245     0.77100
C12         C  0.00906512  0.09426697  0.75452576     0.77200
C13         C  0.90636525  0.99541284  0.75813961     0.77100
C14         C  0.10841130  0.99759664  0.75433436     0.77000
O15         O  0.01385066  0.92651157  0.21405389    -0.72100
O16         O  0.00083795  0.07653361  0.21603074    -0.72300
O17         O  0.08157292  0.00882016  0.21512167    -0.72200
O18         O  0.93464231  0.99381436  0.20833394    -0.72200
O19         O  0.92645208  0.99129648  0.29105850    -0.72100
O20         O  0.07992092  0.00745364  0.29811503    -0.72200
O21         O  0.99677587  0.07245274  0.29894423    -0.72100
O22         O  0.00855471  0.92798368  0.29706131    -0.72300
V23         V  0.00775031  0.00158370  0.21504722     1.35200
V24         V  0.00313137  0.00013107  0.29471891     1.35200
C25         C  0.01264743  0.90193979  0.25661622     0.77100
C26         C  0.99573700  0.09969978  0.25913098     0.77200
C27         C  0.10685580  0.00914173  0.25634193     0.77100
C28         C  0.90516322  0.98769022  0.24682951     0.77000
N29         N  0.14993125  0.29542350  0.01307970    -0.36900
N30         N  0.13932015  0.36938558  0.09360546    -0.57500
N31         N  0.11400829  0.44456636  0.01497535    -0.36900
N32         N  0.12518663  0.36604435  0.93409135    -0.57500
C33         C  0.15387433  0.26574753  0.05510936     0.26700
C34         C  0.14630738  0.26334819  0.97243474     0.26700
C35         C  0.09631600  0.46789762  0.05807317     0.26700
C36         C  0.09099514  0.46726644  0.97458662     0.26700
C37         C  0.17081852  0.33572059  0.11705950     0.35300
C38         C  0.14493730  0.41460979  0.11893780     0.35300
C39         C  0.15156154  0.33068476  0.90620750     0.35300
C40         C  0.12775953  0.41064171  0.90719730     0.35300
C41         C  0.14958649  0.21381195  0.04166961    -0.22200
C42         C  0.14501777  0.21224918  0.98923103    -0.22200
C43         C  0.06138986  0.50596969  0.04490239    -0.22200
C44         C  0.05848471  0.50587391  0.99207207    -0.22200
C45         C  0.19585501  0.35916135  0.15836900    -0.23300
C46         C  0.17891896  0.40942993  0.15989010    -0.23300
C47         C  0.16939314  0.35223485  0.86049203    -0.23300
C48         C  0.15411415  0.40299293  0.86097227    -0.23300
C49         C  0.17683468  0.28435514  0.10046281    -0.18600
C50         C  0.16040626  0.27955871  0.92266893    -0.18600
C51         C  0.10335554  0.45698227  0.92264662    -0.18600
C52         C  0.11505430  0.45830140  0.10808368    -0.18600
H53         H  0.15516199  0.18072725  0.06635530     0.14300
H54         H  0.14617930  0.17745663  0.96615934     0.14300
H55         H  0.04105451  0.53195364  0.07045418     0.14300
H56         H  0.03612465  0.53219401  0.96909796     0.14300
H57         H  0.22314927  0.34185910  0.18454215     0.12600
H58         H  0.19016003  0.43880109  0.18773972     0.12600
H59         H  0.19139476  0.33347331  0.83031078     0.12600
H60         H  0.16218270  0.43125261  0.83106758     0.12600
H61         H  0.16314689  0.33389911  0.01108221     0.25800
H62         H  0.14505443  0.41914585  0.01271847     0.25800
C63         C  0.60895090  0.88831518  0.76967692     0.86200
C64         C  0.64588981  0.93456084  0.75596310    -0.54100
C65         C  0.68272992  0.94801214  0.79171745     0.09100
C66         C  0.67154471  0.91921527  0.84360217     0.20000
C67         C  0.64362595  0.84573632  0.78999616    -0.54800
C68         C  0.67707469  0.86155693  0.82770893     0.09200
C69         C  0.57995885  0.90429902  0.81872898    -0.54300
C70         C  0.61097287  0.92521954  0.85689418     0.09800
H71         H  0.64322174  0.95357118  0.71925370     0.14300
H72         H  0.69824295  0.93117018  0.87512968     0.00000
H73         H  0.64161836  0.80587553  0.77650995     0.14600
H74         H  0.53763802  0.89932885  0.82344446     0.14400
C75         C  0.60822945  0.88074233  0.22433387     0.86200
C76         C  0.57858722  0.90297413  0.17848782    -0.54100
C77         C  0.60925067  0.91878565  0.13694821     0.09100
C78         C  0.66863922  0.90704475  0.14571857     0.20000
C79         C  0.63736531  0.83528499  0.20014635    -0.54800
C80         C  0.66896805  0.84861747  0.15975857     0.09200
C81         C  0.65281946  0.92022357  0.23684490    -0.54300
C82         C  0.68543317  0.93421860  0.19687032     0.09800
H83         H  0.53604718  0.90641820  0.17943547     0.14300
H84         H  0.69438265  0.91815307  0.11278602     0.00000
H85         H  0.63625507  0.79565884  0.21350289     0.14600
H86         H  0.66183913  0.93000896  0.27633681     0.14400
C87         C  0.39827267  0.12097260  0.23367486     0.86200
C88         C  0.42695106  0.10794793  0.18320072    -0.54100
C89         C  0.39696142  0.08373311  0.14610748     0.09100
C90         C  0.33657147  0.08555547  0.16050108     0.20000
C91         C  0.35890754  0.16020767  0.21499256    -0.54800
C92         C  0.32680284  0.14241594  0.17709264     0.09200
C93         C  0.36436086  0.07226647  0.24794159    -0.54300
C94         C  0.32867805  0.05564780  0.21191937     0.09800
H95         H  0.46727489  0.11914096  0.17480699     0.14300
H96         H  0.30998288  0.07217161  0.12955106     0.00000
H97         H  0.35637078  0.19922983  0.23050315     0.14600
H98         H  0.36401677  0.05692628  0.28670212     0.14400
C99         C  0.39367708  0.13148806  0.78526696     0.86200
C100        C  0.35591295  0.08785100  0.76724633    -0.54100
C101        C  0.32058577  0.06983946  0.80278568     0.09100
C102        C  0.33174395  0.09211512  0.85719069     0.20000
C103        C  0.35913769  0.17151367  0.81162634    -0.54800
C104        C  0.32609210  0.15113083  0.84862809     0.09200
C105        C  0.42297936  0.11006123  0.83124361    -0.54300
C106        C  0.39233478  0.08586158  0.86822741     0.09800
H107        H  0.35341666  0.07650549  0.72715011     0.14300
H108        H  0.30482366  0.07541994  0.88700498     0.00000
H109        H  0.36046470  0.21254899  0.80307775     0.14600
H110        H  0.46556081  0.11385319  0.83436283     0.14400
N111        N  0.50369802  0.00601697  0.92391998    -0.36900
N112        N  0.57785319  0.96260499  0.99770412    -0.57500
N113        N  0.50253906  0.99959706  0.07839748    -0.36900
N114        N  0.42949239  0.04338275  0.00563104    -0.57500
C115        C  0.54029964  0.98576268  0.89098594     0.26700
C116        C  0.46352366  0.02472299  0.89519915     0.26700
C117        C  0.54599109  0.98537501  0.10512880     0.26700
C118        C  0.47071169  0.02604794  0.11160501     0.26700
C119        C  0.59955642  0.94210497  0.95445850     0.35300
C120        C  0.59841082  0.93815022  0.03896470     0.35300
C121        C  0.40543874  0.06408299  0.96415053     0.35300
C122        C  0.40636071  0.06266874  0.04883338     0.35300
C123        C  0.52418369  0.99602805  0.84138729    -0.22200
C124        C  0.47453892  0.01409120  0.84417840    -0.22200
C125        C  0.54265361  0.00523757  0.15376289    -0.22200
C126        C  0.49347650  0.02365204  0.15965207    -0.22200
C127        C  0.63506970  0.90498823  0.96866986    -0.23300
C128        C  0.63419270  0.90233797  0.02165815    -0.23300
C129        C  0.36652476  0.09670538  0.98135355    -0.23300
C130        C  0.36697840  0.09560239  0.03432566    -0.23300
C131        C  0.58487907  0.95364392  0.90265323    -0.18600
C132        C  0.41951170  0.05575990  0.91126732    -0.18600
C133        C  0.42364964  0.05491119  0.10063813    -0.18600
C134        C  0.58483171  0.94823896  0.09152743    -0.18600
H135        H  0.54483934  0.99033407  0.80554516     0.14300
H136        H  0.45012205  0.02007030  0.81110201     0.14300
H137        H  0.57196731  0.00313466  0.18321366     0.14300
H138        H  0.47667764  0.03181145  0.19666236     0.14300
H139        H  0.65795014  0.88074199  0.94372090     0.12600
H140        H  0.65678989  0.87607645  0.04423084     0.12600
H141        H  0.34131357  0.12042661  0.95858654     0.12600
H142        H  0.34233105  0.11836866  0.05891663     0.12600
H143        H  0.50675850  0.00893983  0.96338638     0.25800
H144        H  0.49251357  0.98639455  0.04202627     0.25800
N145        N  0.83271921  0.69130054  0.99539628    -0.36900
N146        N  0.85385755  0.62426830  0.91084874    -0.57500
N147        N  0.87523711  0.54472532  0.98651639    -0.36900
N148        N  0.85258280  0.61632298  0.07040682    -0.57500
C149        C  0.83328791  0.72424233  0.95558184     0.21700
C150        C  0.83287681  0.72013186  0.03841819     0.26700
C151        C  0.89701784  0.52522036  0.94329933     0.26700
C152        C  0.89769574  0.52136419  0.02695495     0.26700
C153        C  0.82347070  0.65912664  0.88753673     0.35300
C154        C  0.85128418  0.58080886  0.88219418     0.35300
C155        C  0.82298449  0.64833563  0.09892056     0.35300
C156        C  0.85236984  0.57058588  0.09491818     0.35300
C157        C  0.83674232  0.77499421  0.97325894    -0.22200
C158        C  0.83645201  0.77237765  0.02594195    -0.22200
C159        C  0.93366969  0.48875156  0.95646289    -0.22200
C160        C  0.93395882  0.48626469  0.00929576    -0.22200
C161        C  0.80210274  0.63823663  0.84314240    -0.23300
C162        C  0.82001302  0.58832273  0.83960152    -0.23300
C163        C  0.80446897  0.62330820  0.14264034    -0.23300
C164        C  0.82380145  0.57387789  0.14047549    -0.23300
C165        C  0.81532641  0.70926890  0.90698656    -0.18600
C166        C  0.81505928  0.70037047  0.08570927    -0.18600
C167        C  0.88278085  0.52841984  0.07888339    -0.18600
C168        C  0.88072979  0.53653794  0.89271779    -0.18600
H169        H  0.83414998  0.81003638  0.95072110     0.14300
H170        H  0.83372850  0.80500352  0.05192208     0.14300
H171        H  0.95735176  0.46582206  0.93076406     0.14300
H172        H  0.95737782  0.46066642  0.03204856     0.14300
H173        H  0.77640020  0.65692111  0.81638034     0.12600
H174        H  0.81120661  0.56075627  0.80930209     0.12600
H175        H  0.78073972  0.63932676  0.17316583     0.12600
H176        H  0.81776996  0.54385932  0.16908044     0.12600
H177        H  0.81915899  0.65290006  0.99327045     0.25800
H178        H  0.84255003  0.56816264  0.98816720     0.25800
N179        N  0.31706862  0.77332687  0.50496387    -0.36900
N180        N  0.38353575  0.81167277  0.42326713    -0.57500
N181        N  0.46570529  0.82758515  0.49865516    -0.36900
N182        N  0.39508774  0.79060536  0.57953106    -0.57500
C183        C  0.28157179  0.78350498  0.46855848     0.26700
C184        C  0.28981966  0.76380263  0.54853654     0.26700
C185        C  0.48764828  0.85001561  0.45643581     0.26700
C186        C  0.48912269  0.84929712  0.54034090     0.26700
C187        C  0.34336799  0.79092853  0.39573509     0.35300
C188        C  0.42557337  0.81451283  0.39146457     0.35300
C189        C  0.36409455  0.75750984  0.60700001     0.35300
C190        C  0.43937702  0.79836634  0.60647727     0.35300
C191        C  0.23113297  0.78182354  0.48965852    -0.22200
C192        C  0.23634822  0.76899552  0.54035798    -0.22200
C193        C  0.52635828  0.88585304  0.47121275    -0.22200
C194        C  0.52670969  0.88600722  0.52423976    -0.22200
C195        C  0.35914620  0.78210675  0.34565816    -0.23300
C196        C  0.41143211  0.79740194  0.34278700    -0.23300
C197        C  0.38855863  0.74397117  0.65205280    -0.23300
C198        C  0.43640114  0.77056783  0.65205824    -0.23300
C199        C  0.29266725  0.78057187  0.41587715    -0.18600
C200        C  0.31216107  0.74430728  0.59325235    -0.18600
C201        C  0.47999092  0.83377437  0.59202469    -0.18600
C202        C  0.47509054  0.83624888  0.40523304    -0.18600
H203        H  0.19422139  0.78551536  0.46969540     0.14300
H204        H  0.20435034  0.76195701  0.56739436     0.14300
H205        H  0.55156038  0.90956451  0.44648151     0.14300
H206        H  0.55259373  0.90954492  0.54814115     0.14300
H207        H  0.33543995  0.76657188  0.31460059     0.12600
H208        H  0.43600041  0.79627934  0.30870589     0.12600
H209        H  0.37284136  0.71921144  0.68232315     0.12600
H210        H  0.46546536  0.76987213  0.68217877     0.12600
H211        H  0.35582750  0.76278900  0.49841877     0.25800
H212        H  0.44047607  0.79513129  0.49833303     0.25800
C213        C  0.07790571  0.59002549  0.74379098     0.86200
C214        C  0.05174978  0.57065714  0.69450084    -0.54100
C215        C  0.05784511  0.60197298  0.65230673     0.09100
C216        C  0.08172921  0.65671885  0.66775443     0.20000
C217        C  0.13401518  0.60836358  0.72790479    -0.54800
C218        C  0.13583922  0.64386983  0.68929039     0.09200
C219        C  0.04849384  0.63965144  0.75456043    -0.54300
C220        C  0.05164496  0.67618847  0.71691307     0.09800
H221        H  0.02781075  0.53569235  0.69242222     0.14300
H222        H  0.08405900  0.68569022  0.63650228     0.00000
H223        H  0.16933066  0.59535624  0.74667302     0.14600
H224        H  0.02873689  0.64612371  0.79080134     0.14400
C225        C  0.07514256  0.59985611  0.27971244     0.86200
C226        C  0.04039211  0.64520868  0.26499251    -0.54100
C227        C  0.03559665  0.68247926  0.30190148     0.09100
C228        C  0.06235524  0.66822903  0.35313876     0.20000
C229        C  0.12649970  0.62493370  0.29906055    -0.54800
C230        C  0.11990805  0.66076122  0.33673416     0.09200
C231        C  0.04907989  0.57775760  0.32893471    -0.54300
C232        C  0.04192864  0.61263557  0.36798941     0.09800
H233        H  0.02580550  0.65034171  0.22632742     0.14300
H234        H  0.05764373  0.69786095  0.38355253     0.00000
H235        H  0.16501868  0.61611851  0.28331939     0.14600
H236        H  0.03848317  0.53740112  0.33460876     0.14400
C237        C  0.92244918  0.40356522  0.25885603     0.86200
C238        C  0.94410199  0.34950066  0.25064520    -0.54100
C239        C  0.93507952  0.31552762  0.28978604     0.09100
C240        C  0.90713445  0.34109585  0.33720132     0.20000
C241        C  0.86441788  0.39488627  0.27439989    -0.54800
C242        C  0.85612740  0.36190529  0.31424178     0.09200
C243        C  0.95046368  0.42113516  0.30831426    -0.54300
C244        C  0.93917611  0.39199000  0.35159417     0.09800
H245        H  0.96367521  0.33821906  0.21532984     0.14300
H246        H  0.89965001  0.31321091  0.36853678     0.00000
H247        H  0.83227911  0.41382304  0.25532194     0.14600
H248        H  0.97745336  0.45403963  0.31010082     0.14400
C249        C  0.92930307  0.39052490  0.72521758     0.86200
C250        C  0.95726090  0.41231237  0.67664961    -0.54100
C251        C  0.96388505  0.37808122  0.63690597     0.09100
C252        C  0.94209377  0.32261629  0.65099873     0.20000
C253        C  0.87787176  0.36655344  0.70442829    -0.54800
C254        C  0.88418284  0.33156451  0.66556999     0.09200
C255        C  0.96219825  0.34398314  0.74028824    -0.54300
C256        C  0.96701304  0.30709205  0.70301430     0.09800
H257        H  0.96873198  0.45247060  0.67159214     0.14300
H258        H  0.94758271  0.29304646  0.62068201     0.00000
H259        H  0.83946611  0.37566785  0.72017302     0.14600
H260        H  0.97579583  0.33793130  0.77915216     0.14400
N261        N  0.00925912  0.49131816  0.57530984    -0.36900
N262        N  0.01952497  0.58306858  0.51100137    -0.57500
N263        N  0.98893751  0.50260310  0.42986571    -0.36900
N264        N  0.97806536  0.41267019  0.49348445    -0.57500
C265        C  0.04795101  0.52237786  0.59540606     0.26700
C266        C  0.02091367  0.44172462  0.58743006     0.26700
C267        C  0.98046012  0.55231545  0.41560567     0.26700
C268        C  0.95121657  0.47232353  0.40698181     0.26700
C269        C  0.04436801  0.60438020  0.55194885     0.35300
C270        C  0.03724501  0.60747547  0.46813455     0.35300
C271        C  0.96447822  0.38548830  0.53619478     0.35300
C272        C  0.95380128  0.39050941  0.45255748     0.35300
C273        C  0.08576575  0.49196851  0.61752374    -0.22200
C274        C  0.06808810  0.44108164  0.61333565    -0.22200
C275        C  0.93614575  0.55392387  0.38538667    -0.22200
C276        C  0.91699190  0.50360549  0.38081458    -0.22200
C277        C  0.07877086  0.64363594  0.53487683    -0.23300
C278        C  0.07457920  0.64527196  0.48162465    -0.23300
C279        C  0.93026206  0.34507323  0.52266523    -0.23300
C280        C  0.92407523  0.34773740  0.46970531    -0.23300
C281        C  0.04722502  0.57760620  0.59925403    -0.18600
C282        C  0.98448791  0.39915022  0.58541697    -0.18600
C283        C  0.94974773  0.41689071  0.40467757    -0.18600
C284        C  0.01869185  0.59324775  0.41866444    -0.18600
H285        H  0.12089787  0.50550452  0.63730551     0.14300
H286        H  0.08631130  0.40755415  0.62974331     0.14300
H287        H  0.92110682  0.58762443  0.36630372     0.14300
H288        H  0.88334890  0.49094481  0.35830050     0.14300
H289        H  0.10858941  0.66426402  0.55683128     0.12600
H290        H  0.09828954  0.66964619  0.45629876     0.12600
H291        H  0.91007021  0.31763787  0.54766499     0.12600
H292        H  0.89581882  0.32437329  0.44878034     0.12600
H293        H  0.97371489  0.50342726  0.56006930     0.25800
H294        H  0.02270066  0.48980115  0.44803622     0.25800
N295        N  0.67508869  0.23476585  0.49643128    -0.36900
N296        N  0.58938752  0.23682975  0.43006870    -0.57500
N297        N  0.52258432  0.19517157  0.51182266    -0.36900
N298        N  0.61396704  0.19341824  0.57954244    -0.57500
C299        C  0.69853367  0.24470260  0.45095141     0.26700
C300        C  0.71249106  0.21801828  0.52811754     0.26700
C301        C  0.49592467  0.17886896  0.46964757     0.26700
C302        C  0.50522394  0.16612334  0.55194156     0.26700
C303        C  0.62097307  0.27077357  0.40424811     0.35300
C304        C  0.54143878  0.23870041  0.40916621     0.35300
C305        C  0.65700852  0.21107030  0.60495224     0.35300
C306        C  0.57423331  0.19155954  0.61401597     0.35300
C307        C  0.75118269  0.23190766  0.45273864    -0.22200
C308        C  0.76014891  0.21536315  0.50189939    -0.22200
C309        C  0.46099282  0.13875443  0.48338387    -0.22200
C310        C  0.46605473  0.13152765  0.53571898    -0.22200
C311        C  0.59285590  0.29507505  0.36635811    -0.23300
C312        C  0.54236280  0.27361996  0.36869642    -0.23300
C313        C  0.64513815  0.21926015  0.65616139    -0.23300
C314        C  0.59236932  0.20673904  0.66201532    -0.23300
C315        C  0.67557931  0.27493047  0.41282033    -0.18600
C316        C  0.70666232  0.21913270  0.58157046    -0.18600
C317        C  0.52317263  0.17213842  0.60287960    -0.18600
C318        C  0.50123336  0.20159405  0.42015935    -0.18600
H319        H  0.78080550  0.23794605  0.42305483     0.14300
H320        H  0.79819193  0.20650257  0.51749329     0.14300
H321        H  0.43398202  0.11757302  0.45861224     0.14300
H322        H  0.44427381  0.10341859  0.55898210     0.14300
H323        H  0.60756652  0.32315601  0.33857250     0.12600
H324        H  0.51038442  0.28158301  0.34291993     0.12600
H325        H  0.67164687  0.23272593  0.68595845     0.12600
H326        H  0.56999874  0.20846935  0.69747578     0.12600
H327        H  0.63928957  0.24983268  0.50823584     0.25800
H328        H  0.54817169  0.22735297  0.51450066     0.25800
C329        C  0.83891137  0.30293397  0.64273357    -0.06400
C330        C  0.84018884  0.24859423  0.63927697    -0.17600
C331        C  0.79578437  0.21930516  0.62403950     0.10800
C332        C  0.74987831  0.24505044  0.61006170    -0.06400
C333        C  0.74883692  0.29928655  0.61281582    -0.17600
C334        C  0.79292990  0.32848743  0.62810109     0.10800
S335        S  0.80040291  0.14965785  0.62175694    -0.32600
S336        S  0.78932974  0.39814461  0.62377898    -0.32600
H337        H  0.84256395  0.40654603  0.60977833     0.28800
H338        H  0.74596916  0.13831711  0.62498986     0.28800
H339        H  0.87552811  0.22867794  0.64968260     0.19400
H340        H  0.71428242  0.31916252  0.59989168     0.19400
C341        C  0.80296381  0.34961540  0.33509357    -0.06400
C342        C  0.79308883  0.36165605  0.38648056    -0.17600
C343        C  0.74641185  0.34481464  0.41043029     0.10800
C344        C  0.71108589  0.31108154  0.38378631    -0.06400
C345        C  0.71825244  0.30358713  0.33105897    -0.17600
C346        C  0.76284482  0.32472110  0.30583688     0.10800
S347        S  0.73615876  0.36388084  0.47637504    -0.32600
S348        S  0.76849945  0.31724828  0.23728217    -0.32600
H349        H  0.71656370  0.29877875  0.22901288     0.28800
H350        H  0.68118573  0.35513778  0.47652423     0.28800
H351        H  0.82225357  0.38370706  0.40825054     0.19400
H352        H  0.69081257  0.27854386  0.31038749     0.19400
C353        C  0.25329717  0.75132276  0.38542940    -0.06400
C354        C  0.25155896  0.69747046  0.39304327    -0.17600
C355        C  0.20737749  0.66756233  0.37971958     0.10800
C356        C  0.16470487  0.69159145  0.35629188    -0.06400
C357        C  0.16705974  0.74514300  0.34667972    -0.17600
C358        C  0.21111674  0.77541442  0.36104561     0.10800
S359        S  0.20657412  0.59962813  0.39643278    -0.32600
S360        S  0.21008821  0.84436179  0.34964874    -0.32600
H361        H  0.26464473  0.85406170  0.35350041     0.28800
H362        H  0.15191651  0.59474220  0.40509826     0.28800
H363        H  0.28331549  0.67928386  0.41325560     0.19400
H364        H  0.13457779  0.76335336  0.32771993     0.19400
C365        C  0.27752144  0.71262632  0.62698145    -0.06400
C366        C  0.25040258  0.73860283  0.66553516    -0.17600
C367        C  0.20393032  0.71716788  0.68650571     0.10800
C368        C  0.18578046  0.66753402  0.67033301    -0.06400
C369        C  0.21508322  0.63997688  0.63429634    -0.17600
C370        C  0.26053864  0.66223343  0.61201228     0.10800
S371        S  0.16664817  0.75564812  0.73051412    -0.32600
S372        S  0.29244910  0.62661062  0.56147785    -0.32600
H373        H  0.34190076  0.65221371  0.56534811     0.28800
H374        H  0.20208451  0.79847334  0.73346063     0.28800
H375        H  0.26304725  0.77779885  0.67544827     0.19400
H376        H  0.20117376  0.60188373  0.62186290     0.19400
C377        C  0.92451971  0.43678153  0.20974737    -0.06400
C378        C  0.90387075  0.41232894  0.16522329    -0.17600
C379        C  0.89015091  0.44029923  0.12176986     0.10800
C380        C  0.90253904  0.49375857  0.11949114    -0.06400
C381        C  0.92856631  0.51735111  0.16077887    -0.17600
C382        C  0.93444660  0.49140892  0.20725512     0.10800
S383        S  0.85227920  0.40626062  0.07340695    -0.32600
S384        S  0.94409722  0.53248879  0.26219314    -0.32600
H385        H  0.92836186  0.57948321  0.24052925     0.28800
H386        H  0.81931700  0.44763451  0.06237067     0.28800
H387        H  0.89255589  0.37156885  0.16620202     0.19400
H388        H  0.93828252  0.55849448  0.15853131     0.19400
C389        C  0.91855645  0.42859858  0.77008254    -0.06400
C390        C  0.93063978  0.48225745  0.76545422    -0.17600
C391        C  0.91973830  0.51755450  0.80456611     0.10800
C392        C  0.89443437  0.50050951  0.85000170    -0.06400
C393        C  0.88127212  0.44783133  0.85506600    -0.17600
C394        C  0.89319794  0.41192410  0.81655548     0.10800
S395        S  0.93891887  0.58423931  0.79362016    -0.32600
S396        S  0.87510051  0.34519008  0.82910288    -0.32600
H397        H  0.84021730  0.35333021  0.87036669     0.28800
H398        H  0.95592569  0.59344503  0.84413386     0.28800
H399        H  0.94853822  0.49865343  0.73162553     0.19400
H400        H  0.86155557  0.43477335  0.88990279     0.19400
C401        C  0.42884712  0.14803195  0.73944163    -0.06400
C402        C  0.47134217  0.11553496  0.72766935    -0.17600
C403        C  0.49996984  0.11972615  0.68192670     0.10800
C404        C  0.48770346  0.15846388  0.64648360    -0.06400
C405        C  0.44451764  0.18952419  0.65597072    -0.17600
C406        C  0.41365788  0.18362622  0.70060796     0.10800
S407        S  0.55120333  0.07377782  0.67063530    -0.32600
S408        S  0.35501008  0.22149838  0.70417874    -0.32600
H409        H  0.35016258  0.23034196  0.65119080     0.28800
H410        H  0.54909904  0.07548468  0.61678482     0.28800
H411        H  0.48121695  0.08433086  0.75308038     0.19400
H412        H  0.43524334  0.21905759  0.62821120     0.19400
C413        C  0.47310059  0.17901496  0.37508396    -0.06400
C414        C  0.50440009  0.15642204  0.33720068    -0.17600
C415        C  0.48368580  0.13758622  0.29099494     0.10800
C416        C  0.42851835  0.14104066  0.28155125    -0.06400
C417        C  0.39697647  0.16100343  0.32189809    -0.17600
C418        C  0.41845811  0.18110739  0.36739323     0.10800
S419        S  0.53081085  0.10939602  0.24795976    -0.32600
S420        S  0.37399474  0.20971485  0.41305952    -0.32600
H421        H  0.41115420  0.24352665  0.43614239     0.28800
H422        H  0.56956292  0.09815623  0.28428708     0.28800
H423        H  0.54640712  0.15457799  0.34378723     0.19400
H424        H  0.35458636  0.16193642  0.31753442     0.19400
C425        C  0.57356504  0.86889970  0.27250930    -0.06400
C426        C  0.57093139  0.81877379  0.29481710    -0.17600
C427        C  0.54260426  0.80837330  0.34008960     0.10800
C428        C  0.51346676  0.84768187  0.36332094    -0.06400
C429        C  0.51532360  0.89726087  0.34222323    -0.17600
C430        C  0.54593968  0.90879368  0.29849690     0.10800
S431        S  0.54394661  0.74357002  0.36596776    -0.32600
S432        S  0.55025950  0.97555785  0.27868309    -0.32600
H433        H  0.51863034  0.99689158  0.31745720     0.28800
H434        H  0.53965194  0.75868783  0.41765367     0.28800
H435        H  0.59139730  0.78663904  0.27878658     0.19400
H436        H  0.49235085  0.92702317  0.36038035     0.19400
C437        C  0.77590119  0.73166831  0.11315147    -0.06400
C438        C  0.72532619  0.73263506  0.09182168    -0.17600
C439        C  0.69009190  0.77127854  0.10473368     0.10800
C440        C  0.70595724  0.81027566  0.13984905    -0.06400
C441        C  0.75474164  0.80642463  0.16458898    -0.17600
C442        C  0.79020598  0.76805488  0.15114490     0.10800
S443        S  0.62582655  0.76729713  0.07527550    -0.32600
S444        S  0.85326741  0.76855459  0.18258879    -0.32600
H445        H  0.86556325  0.71690093  0.17194331     0.28800
H446        H  0.60423657  0.81240994  0.09556512     0.28800
H447        H  0.71412316  0.70406529  0.06312966     0.19400
H448        H  0.76493238  0.83288244  0.19542370     0.19400
C449        C  0.51438860  0.85412071  0.63358977    -0.06400
C450        C  0.56581211  0.83685737  0.63623150    -0.17600
C451        C  0.59720419  0.84714242  0.67920459     0.10800
C452        C  0.57554852  0.87313887  0.72273488    -0.06400
C453        C  0.52458050  0.89305725  0.71790330    -0.17600
C454        C  0.49429584  0.88422688  0.67406260     0.10800
S455        S  0.66450244  0.82610678  0.67614046    -0.32600
S456        S  0.43003324  0.91234339  0.67197766    -0.32600
H457        H  0.42821066  0.91673137  0.61826205     0.28800
H458        H  0.66669464  0.81601034  0.62313061     0.28800
H459        H  0.58086776  0.81395710  0.60477743     0.19400
H460        H  0.50823418  0.91746665  0.74734095     0.19400
C461        C  0.71474685  0.82477487  0.84862674    -0.06400
C462        C  0.69622428  0.79064420  0.88676267    -0.17600
C463        C  0.72682828  0.74993135  0.90330581     0.10800
C464        C  0.77793830  0.74402932  0.88250001    -0.06400
C465        C  0.79632393  0.77745230  0.84395112    -0.17600
C466        C  0.76476165  0.81673961  0.82573297     0.10800
S467        S  0.69866452  0.70696810  0.95133431    -0.32600
S468        S  0.79098679  0.85384935  0.77276815    -0.32600
H469        H  0.74255623  0.85959471  0.74863725     0.28800
H470        H  0.72515787  0.66260139  0.93527143     0.28800
H471        H  0.65689527  0.79468409  0.90254552     0.19400
H472        H  0.83560939  0.77299398  0.82818826     0.19400
C473        C  0.20117121  0.24873988  0.89659732    -0.06400
C474        C  0.25379910  0.26369864  0.90600013    -0.17600
C475        C  0.29506415  0.23124198  0.89369888     0.10800
C476        C  0.28384218  0.18260631  0.87077744    -0.06400
C477        C  0.23121888  0.16775569  0.86077708    -0.17600
C478        C  0.18986000  0.20072088  0.87253474     0.10800
S479        S  0.36095499  0.25347692  0.90983064    -0.32600
S480        S  0.12375744  0.17949966  0.85618890    -0.32600
H481        H  0.10219112  0.22911869  0.85572914     0.28800
H482        H  0.38152114  0.20391562  0.91657836     0.28800
H483        H  0.26257692  0.30013986  0.92535822     0.19400
H484        H  0.22236817  0.13115364  0.84188814     0.19400
C485        C  0.28624110  0.17627623  0.15683955    -0.06400
C486        C  0.29910631  0.20623047  0.11369106    -0.17600
C487        C  0.26566837  0.24453712  0.09701062     0.10800
C488        C  0.21741401  0.25201222  0.12312815    -0.06400
C489        C  0.20506023  0.22325741  0.16707901    -0.17600
C490        C  0.23978709  0.18640207  0.18502830     0.10800
S491        S  0.28672604  0.28254863  0.04210815    -0.32600
S492        S  0.22579347  0.15544133  0.24551101    -0.32600
H493        H  0.17196049  0.16695870  0.24789121     0.28800
H494        H  0.26074015  0.32790373  0.05607762     0.28800
H495        H  0.33652078  0.20138116  0.09421575     0.19400
H496        H  0.16834218  0.22989876  0.18719893     0.19400
C497        C  0.08523298  0.56287526  0.23443024    -0.06400
C498        C  0.07174749  0.50954369  0.23778553    -0.17600
C499        C  0.07850804  0.47586025  0.19662486     0.10800
C500        C  0.10244846  0.49412141  0.15093471    -0.06400
C501        C  0.11767108  0.54653984  0.14723030    -0.17600
C502        C  0.10894715  0.58116598  0.18778245     0.10800
S503        S  0.05580293  0.40952259  0.20516450    -0.32600
S504        S  0.13068560  0.64803837  0.17909277    -0.32600
H505        H  0.13641150  0.64635528  0.12539428     0.28800
H506        H  0.03766462  0.40320408  0.15462645     0.28800
H507        H  0.05514866  0.49249607  0.27193139     0.19400
H508        H  0.13737605  0.56011833  0.11256810     0.19400
C509        C  0.08945965  0.49442279  0.88176305    -0.06400
C510        C  0.06297446  0.47425451  0.83907379    -0.17600
C511        C  0.06506260  0.50022868  0.79216757     0.10800
C512        C  0.07924990  0.55408239  0.79096848    -0.06400
C513        C  0.10011165  0.57610396  0.83640801    -0.17600
C514        C  0.10884404  0.54624387  0.88009986     0.10800
S515        S  0.06611382  0.45884541  0.73659002    -0.32600
S516        S  0.14862316  0.57555459  0.92991076    -0.32600
H517        H  0.17586976  0.53043015  0.94168910     0.28800
H518        H  0.05907922  0.41038734  0.76072992     0.28800
H519        H  0.04854295  0.43433277  0.84048066     0.19400
H520        H  0.11422214  0.61607168  0.83639225     0.19400
C521        C  0.01482016  0.84434206  0.26235878    -0.06400
C522        C  0.98727347  0.82151945  0.30435743    -0.17600
C523        C  0.99152248  0.76889897  0.31694794     0.10800
C524        C  0.02418229  0.73722040  0.28717843    -0.06400
C525        C  0.05060121  0.75954864  0.24427791    -0.17600
C526        C  0.04692316  0.81245009  0.23208340     0.10800
S527        S  0.95409957  0.74466806  0.37141227    -0.32600
S528        S  0.08778789  0.83760889  0.18055978    -0.32600
H529        H  0.10483851  0.88230160  0.20744241     0.28800
H530        H  0.94801829  0.69341221  0.35344366     0.28800
H531        H  0.96236402  0.84519716  0.32826057     0.19400
H532        H  0.07695509  0.73633191  0.22165564     0.19400
C533        C  0.27593871  0.03075556  0.22829573    -0.06400
C534        C  0.25436172  0.04158471  0.27753662    -0.17600
C535        C  0.20036030  0.03222499  0.28964248     0.10800
C536        C  0.16631830  0.01108384  0.25208499    -0.06400
C537        C  0.18934458  0.99439778  0.20547227    -0.17600
C538        C  0.24317156  0.00278484  0.19381892     0.10800
S539        S  0.17484354  0.05194578  0.35128573    -0.32600
S540        S  0.26762119  0.97488411  0.13504513    -0.32600
H541        H  0.32045827  0.97296610  0.15067179     0.28800
H542        H  0.22205699  0.07403763  0.37034807     0.28800
H543        H  0.27834411  0.06190856  0.30550339     0.19400
H544        H  0.16485841  0.97499225  0.17705469     0.19400
C545        C  0.94756398  0.25897931  0.28246060    -0.06400
C546        C  0.97826367  0.23444366  0.31908519    -0.17600
C547        C  0.99797817  0.18456164  0.31050546     0.10800
C548        C  0.98519662  0.15644756  0.26495287    -0.06400
C549        C  0.95455211  0.18086638  0.22834631    -0.17600
C550        C  0.93554527  0.23096504  0.23636680     0.10800
S551        S  0.04196221  0.16031765  0.35821197    -0.32600
S552        S  0.89420868  0.25486194  0.18627974    -0.32600
H553        H  0.86687751  0.28820756  0.21826538     0.28800
H554        H  0.07481452  0.13540698  0.32264952     0.28800
H555        H  0.98924855  0.25533213  0.35366284     0.19400
H556        H  0.94331063  0.15984920  0.19390992     0.19400
C557        C  0.84825262  0.97419658  0.23671369    -0.06400
C558        C  0.80704028  0.99832701  0.26310531    -0.17600
C559        C  0.75374919  0.99028362  0.24836710     0.10800
C560        C  0.74057618  0.95592302  0.20711778    -0.06400
C561        C  0.78237571  0.93521424  0.17909334    -0.17600
C562        C  0.83480277  0.94221349  0.19409046     0.10800
S563        S  0.70526528  0.02862322  0.28082201    -0.32600
S564        S  0.88259275  0.90614636  0.15810156    -0.32600
H565        H  0.91053716  0.89143031  0.20183939     0.28800
H566        H  0.66941203  0.02850163  0.23993707     0.28800
H567        H  0.81644413  0.02518418  0.29391256     0.19400
H568        H  0.77457588  0.91024089  0.14660731     0.19400
C569        C  0.26797256  0.04709243  0.78586796    -0.06400
C570        C  0.24525357  0.00473308  0.81254674    -0.17600
C571        C  0.19545251  0.98350294  0.79909109     0.10800
C572        C  0.16667293  0.00514555  0.75828049    -0.06400
C573        C  0.19082226  0.04464190  0.72927504    -0.17600
C574        C  0.23951728  0.06702558  0.74342144     0.10800
S575        S  0.17052740  0.92843001  0.83530580    -0.32600
S576        S  0.25825356  0.12530744  0.70926562    -0.32600
H577        H  0.26744358  0.15400664  0.75421878     0.28800
H578        H  0.13879844  0.90782004  0.79574564     0.28800
H579        H  0.26628976  0.98816486  0.84428210     0.19400
H580        H  0.16913474  0.06192131  0.69836071     0.19400
C581        C  0.00955370  0.83797740  0.74164137    -0.06400
C582        C  0.02921131  0.80909337  0.78215952    -0.17600
C583        C  0.04297596  0.75709166  0.77605384     0.10800
C584        C  0.03622216  0.73151628  0.72745090    -0.06400
C585        C  0.01403245  0.75992693  0.68765579    -0.17600
C586        C  0.99964816  0.81183996  0.69435955     0.10800
S587        S  0.07336194  0.72955163  0.83190063    -0.32600
S588        S  0.96719272  0.84157673  0.64114371    -0.32600
H589        H  0.93072970  0.86761773  0.67218836     0.28800
H590        H  0.11160041  0.70191587  0.80518031     0.28800
H591        H  0.03701140  0.82814648  0.81851403     0.19400
H592        H  0.00685871  0.74122251  0.65102379     0.19400
C593        C  0.84733480  0.99534922  0.76349231    -0.06400
C594        C  0.81632305  0.97936935  0.72216778    -0.17600
C595        C  0.76188559  0.96791211  0.72774398     0.10800
C596        C  0.73658960  0.97222461  0.77726723    -0.06400
C597        C  0.76719433  0.99404824  0.81693271    -0.17600
C598        C  0.82122605  0.00621165  0.81061238     0.10800
S599        S  0.72937050  0.94460732  0.67039983    -0.32600
S600        S  0.85404387  0.03630732  0.86452603    -0.32600
H601        H  0.88588727  0.06993605  0.83422742     0.28800
H602        H  0.77432954  0.92905950  0.64312691     0.28800
H603        H  0.83556492  0.97332969  0.68552296     0.19400
H604        H  0.74914195  0.00120587  0.85393692     0.19400
C605        C  0.97889951  0.25247027  0.71798651    -0.06400
C606        C  0.02779666  0.23189894  0.70500612    -0.17600
C607        C  0.04111249  0.18177480  0.72085380     0.10800
C608        C  0.00543304  0.15143447  0.75128692    -0.06400
C609        C  0.95748426  0.17256170  0.76553903    -0.17600
C610        C  0.94320424  0.22172259  0.74826782     0.10800
S611        S  0.10395495  0.15800697  0.70049506    -0.32600
S612        S  0.87683445  0.24142457  0.76072524    -0.32600
H613        H  0.86061027  0.19950233  0.79207709     0.28800
H614        H  0.10945656  0.12462961  0.74260687     0.28800
H615        H  0.05567554  0.25488165  0.68224105     0.19400
H616        H  0.92918203  0.14839737  0.78651776     0.19400
loop_ 
_geom_bond_atom_site_label_1 
_geom_bond_atom_site_label_2 
_geom_bond_distance 
_geom_bond_site_symmetry_2 
_ccdc_geom_bond_type 
O1            V9   1.935       .  S
O1           C11   1.277       .  A
O2            V9   1.937   1_545  S
O2           C12   1.276       .  A
O3            V9   1.881   1_655  S
O3           C13   1.256       .  A
O4            V9   1.880       .  S
O4           C14   1.257       .  A
O5           V10   1.935       .  S
O5           C14   1.276       .  A
O6           V10   1.941   1_655  S
O6           C13   1.278       .  A
O7           V10   1.876   1_545  S
O7           C12   1.254       .  A
O8           V10   1.883       .  S
O8           C11   1.257       .  A
V9           V10   2.082       .  T
C11         C581   1.502       .  S
C12         C608   1.482       .  S
C13         C593   1.503       .  S
C14         C572   1.490   1_565  S
O15          V23   1.946   1_565  S
O15          C25   1.278       .  A
O16          V23   1.946       .  S
O16          C26   1.279   1_455  A
O17          V23   1.878       .  S
O17          C27   1.256       .  A
O18          V23   1.870   1_665  S
O18          C28   1.254       .  A
O19          V24   1.956   1_665  S
O19          C28   1.280       .  A
O20          V24   1.955       .  S
O20          C27   1.281       .  A
O21          V24   1.879   1_655  S
O21          C26   1.255       .  A
O22          V24   1.870   1_565  S
O22          C25   1.254       .  A
V23          V24   2.080       .  T
C25         C521   1.495       .  S
C26         C548   1.502       .  S
C27         C536   1.512       .  S
C28         C557   1.501       .  S
N29          C34   1.345   1_554  A
N29          C33   1.344       .  A
N29          H61   1.039       .  S
N30          C37   1.348       .  A
N30          C38   1.344       .  A
N31          C36   1.351   1_554  A
N31          C35   1.353       .  A
N31          H62   1.040       .  S
N32          C39   1.353       .  A
N32          C40   1.348       .  A
C33          C41   1.385       .  A
C33          C49   1.401       .  A
C34          C50   1.404       .  A
C34          C42   1.389       .  A
C35          C43   1.387       .  A
C35          C52   1.416       .  A
C36          C51   1.414       .  A
C36          C44   1.385       .  A
C37          C49   1.405       .  A
C37          C45   1.384       .  A
C38          C52   1.406       .  A
C38          C46   1.387       .  A
C39          C47   1.383       .  A
C39          C50   1.412       .  A
C40          C48   1.390       .  A
C40          C51   1.418       .  A
C41          C42   1.373   1_554  A
C41          H53   1.083       .  S
C42          H54   1.080       .  S
C43          C44   1.380   1_554  A
C43          H55   1.082       .  S
C44          H56   1.082       .  S
C45          C46   1.377       .  A
C45          H57   1.082       .  S
C46          H58   1.082       .  S
C47          C48   1.376       .  A
C47          H59   1.082       .  S
C48          H60   1.082       .  S
C49         C488   1.472       .  S
C50         C473   1.482       .  S
C51         C509   1.490       .  S
C52         C500   1.487       .  S
C63          C64   1.536       .  S
C63          C69   1.532       .  S
C63          C67   1.525       .  S
C63         C452   1.538       .  S
C64          H71   1.079       .  S
C64          C65   1.363       .  D
C65          C66   1.564       .  S
C65         C596   1.531       .  S
C66          C70   1.585       .  S
C66          C68   1.553       .  S
C66          H72   1.107       .  S
C67          H73   1.086       .  S
C67          C68   1.359       .  D
C68         C461   1.474       .  S
C69          H74   1.084       .  S
C69          C70   1.374       .  D
C70         C131   1.552       .  S
C75          C76   1.538       .  S
C75          C81   1.537       .  S
C75          C79   1.535       .  S
C75         C425   1.553       .  S
C76          H83   1.086       .  S
C76          C77   1.383       .  D
C77          C78   1.565       .  S
C77         C134   1.551       .  S
C78          C82   1.562       .  S
C78          C80   1.551       .  S
C78          H84   1.108       .  S
C79          H85   1.080       .  S
C79          C80   1.357       .  D
C80         C440   1.473       .  S
C81          H86   1.084       .  S
C81          C82   1.368       .  D
C82         C560   1.518       .  S
C87          C88   1.540       .  S
C87          C93   1.546       .  S
C87          C91   1.525       .  S
C87         C416   1.551       .  S
C88          H95   1.076       .  S
C88          C89   1.374       .  D
C89          C90   1.577       .  S
C89         C133   1.558       .  S
C90          C94   1.556       .  S
C90          C92   1.554       .  S
C90          H96   1.105       .  S
C91          H97   1.087       .  S
C91          C92   1.357       .  D
C92         C485   1.471       .  S
C93          H98   1.086       .  S
C93          C94   1.370       .  D
C94         C533   1.526       .  S
C99         C100   1.533       .  S
C99         C105   1.528       .  S
C99         C103   1.531       .  S
C99         C401   1.539       .  S
C100        H107   1.087       .  S
C100        C101   1.357       .  D
C101        C102   1.555       .  S
C101        C569   1.512       .  S
C102        C106   1.580       .  S
C102        C104   1.549       .  S
C102        H108   1.110       .  S
C103        H109   1.081       .  S
C103        C104   1.369       .  D
C104        C476   1.476       .  S
C105        H110   1.086       .  S
C105        C106   1.373       .  D
C106        C132   1.544       .  S
N111        C116   1.369       .  A
N111        C115   1.373   1_545  A
N111        H143   1.035       .  S
N112        C119   1.363       .  A
N112        C120   1.363   1_556  A
N113        C118   1.373   1_565  A
N113        C117   1.369       .  A
N113        H144   1.038       .  S
N114        C121   1.363   1_554  A
N114        C122   1.365       .  A
C115        C123   1.388       .  A
C115        C131   1.455       .  A
C116        C132   1.451       .  A
C116        C124   1.385       .  A
C117        C125   1.370   1_565  A
C117        C134   1.436       .  A
C118        C133   1.456       .  A
C118        C126   1.386       .  A
C119        C131   1.438       .  A
C119        C127   1.386       .  A
C120        C134   1.435       .  A
C120        C128   1.386       .  A
C121        C129   1.386       .  A
C121        C132   1.439       .  A
C122        C130   1.385       .  A
C122        C133   1.440       .  A
C123        C124   1.357   1_565  A
C123        H135   1.079       .  S
C124        H136   1.080       .  S
C125        C126   1.355       .  A
C125        H137   1.076       .  S
C126        H138   1.074       .  S
C127        C128   1.383   1_556  A
C127        H139   1.079       .  S
C128        H140   1.078       .  S
C129        C130   1.382   1_556  A
C129        H141   1.080       .  S
C130        H142   1.077       .  S
N145        C150   1.345   1_556  A
N145        C149   1.342       .  A
N145        H177   1.040       .  S
N146        C153   1.350       .  A
N146        C154   1.346       .  A
N147        C152   1.353   1_556  A
N147        C151   1.353       .  A
N147        H178   1.041       .  S
N148        C155   1.350       .  A
N148        C156   1.342       .  A
C149        C157   1.387       .  A
C149        C165   1.400       .  A
C150        C166   1.401       .  A
C150        C158   1.387       .  A
C151        C159   1.387       .  A
C151        C168   1.419       .  A
C152        C167   1.415       .  A
C152        C160   1.384       .  A
C153        C165   1.408       .  A
C153        C161   1.384       .  A
C154        C168   1.411       .  A
C154        C162   1.387       .  A
C155        C163   1.383       .  A
C155        C166   1.406       .  A
C156        C164   1.390       .  A
C156        C167   1.412       .  A
C157        C158   1.375   1_556  A
C157        H169   1.082       .  S
C158        H170   1.082       .  S
C159        C160   1.379   1_556  A
C159        H171   1.082       .  S
C160        H172   1.082       .  S
C161        C162   1.380       .  A
C161        H173   1.082       .  S
C162        H174   1.082       .  S
C163        C164   1.380       .  A
C163        H175   1.082       .  S
C164        H176   1.083       .  S
C165        C464   1.474       .  S
C166        C437   1.477       .  S
C167        C380   1.486       .  S
C168        C392   1.494       .  S
N179        C184   1.344       .  A
N179        C183   1.345       .  A
N179        H211   1.041       .  S
N180        C187   1.349       .  A
N180        C188   1.346       .  A
N181        C186   1.356       .  A
N181        C185   1.353       .  A
N181        H212   1.039       .  S
N182        C189   1.347       .  A
N182        C190   1.341       .  A
C183        C191   1.389       .  A
C183        C199   1.402       .  A
C184        C200   1.401       .  A
C184        C192   1.386       .  A
C185        C193   1.386       .  A
C185        C202   1.417       .  A
C186        C201   1.421       .  A
C186        C194   1.388       .  A
C187        C199   1.404       .  A
C187        C195   1.383       .  A
C188        C202   1.410       .  A
C188        C196   1.390       .  A
C189        C197   1.383       .  A
C189        C200   1.401       .  A
C190        C198   1.389       .  A
C190        C201   1.407       .  A
C191        C192   1.371       .  A
C191        H203   1.082       .  S
C192        H204   1.082       .  S
C193        C194   1.383       .  A
C193        H205   1.082       .  S
C194        H206   1.082       .  S
C195        C196   1.375       .  A
C195        H207   1.082       .  S
C196        H208   1.082       .  S
C197        C198   1.377       .  A
C197        H209   1.082       .  S
C198        H210   1.082       .  S
C199        C353   1.472       .  S
C200        C365   1.470       .  S
C201        C449   1.483       .  S
C202        C428   1.482       .  S
C213        C214   1.528       .  S
C213        C219   1.524       .  S
C213        C217   1.541       .  S
C213        C512   1.542       .  S
C214        H221   1.074       .  S
C214        C215   1.371       .  D
C215        C216   1.573       .  S
C215        C281   1.541       .  S
C216        C220   1.575       .  S
C216        C218   1.533       .  S
C216        H222   1.106       .  S
C217        H223   1.086       .  S
C217        C218   1.361       .  D
C218        C368   1.473       .  S
C219        H224   1.081       .  S
C219        C220   1.362       .  D
C220        C584   1.514       .  S
C225        C226   1.536       .  S
C225        C231   1.541       .  S
C225        C229   1.528       .  S
C225        C497   1.541       .  S
C226        H233   1.086       .  S
C226        C227   1.366       .  D
C227        C228   1.553       .  S
C227        C524   1.500       .  S
C228        C232   1.559       .  S
C228        C230   1.536       .  S
C228        H234   1.108       .  S
C229        H235   1.087       .  S
C229        C230   1.360       .  D
C230        C356   1.463       .  S
C231        H236   1.077       .  S
C231        C232   1.372       .  D
C232        C284   1.522       .  S
C237        C238   1.527       .  S
C237        C243   1.539       .  S
C237        C241   1.534       .  S
C237        C377   1.541       .  S
C238        H245   1.086       .  S
C238        C239   1.360       .  D
C239        C240   1.573       .  S
C239        C545   1.512       .  S
C240        C244   1.571       .  S
C240        C242   1.541       .  S
C240        H246   1.101       .  S
C241        H247   1.087       .  S
C241        C242   1.355       .  D
C242        C341   1.477       .  S
C243        H248   1.076       .  S
C243        C244   1.380       .  D
C244        C283   1.547       .  S
C249        C250   1.545       .  S
C249        C255   1.535       .  S
C249        C253   1.531       .  S
C249        C389   1.553       .  S
C250        H257   1.076       .  S
C250        C251   1.372       .  D
C251        C252   1.562       .  S
C251        C282   1.531       .  S
C252        C256   1.559       .  S
C252        C254   1.539       .  S
C252        H258   1.108       .  S
C253        H259   1.086       .  S
C253        C254   1.367       .  D
C254        C329   1.477       .  S
C255        H260   1.086       .  S
C255        C256   1.366       .  D
C256        C605   1.502       .  S
N261        C266   1.359       .  A
N261        C265   1.357       .  A
N261        H293   1.045   1_455  S
N262        C269   1.352       .  A
N262        C270   1.351       .  A
N263        C268   1.359       .  A
N263        C267   1.359       .  A
N263        H294   1.045   1_655  S
N264        C271   1.354       .  A
N264        C272   1.354       .  A
C265        C273   1.386       .  A
C265        C281   1.428       .  A
C266        C282   1.416   1_455  A
C266        C274   1.380       .  A
C267        C275   1.380       .  A
C267        C284   1.416   1_655  A
C268        C283   1.430       .  A
C268        C276   1.386       .  A
C269        C281   1.418       .  A
C269        C277   1.389       .  A
C270        C284   1.421       .  A
C270        C278   1.387       .  A
C271        C279   1.385       .  A
C271        C282   1.424       .  A
C272        C280   1.391       .  A
C272        C283   1.428       .  A
C273        C274   1.379       .  A
C273        H285   1.083       .  S
C274        H286   1.082       .  S
C275        C276   1.378       .  A
C275        H287   1.082       .  S
C276        H288   1.083       .  S
C277        C278   1.394       .  A
C277        H289   1.080       .  S
C278        H290   1.080       .  S
C279        C280   1.393       .  A
C279        H291   1.078       .  S
C280        H292   1.075       .  S
N295        C300   1.345       .  A
N295        C299   1.344       .  A
N295        H327   1.042       .  S
N296        C303   1.347       .  A
N296        C304   1.340       .  A
N297        C302   1.351       .  A
N297        C301   1.356       .  A
N297        H328   1.042       .  S
N298        C305   1.350       .  A
N298        C306   1.345       .  A
C299        C307   1.387       .  A
C299        C315   1.405       .  A
C300        C316   1.400       .  A
C300        C308   1.388       .  A
C301        C309   1.388       .  A
C301        C318   1.422       .  A
C302        C317   1.414       .  A
C302        C310   1.385       .  A
C303        C315   1.407       .  A
C303        C311   1.385       .  A
C304        C318   1.407       .  A
C304        C312   1.388       .  A
C305        C313   1.383       .  A
C305        C316   1.405       .  A
C306        C314   1.389       .  A
C306        C317   1.408       .  A
C307        C308   1.374       .  A
C307        H319   1.083       .  S
C308        H320   1.081       .  S
C309        C310   1.385       .  A
C309        H321   1.082       .  S
C310        H322   1.082       .  S
C311        C312   1.382       .  A
C311        H323   1.082       .  S
C312        H324   1.082       .  S
C313        C314   1.376       .  A
C313        H325   1.082       .  S
C314        H326   1.082       .  S
C315        C344   1.482       .  S
C316        C332   1.474       .  S
C317        C404   1.481       .  S
C318        C413   1.489       .  S
C329        C330   1.405       .  A
C329        C334   1.412       .  A
C330        C331   1.399       .  A
C330        H339   1.083       .  S
C331        C332   1.408       .  A
C331        S335   1.804       .  S
C332        C333   1.401       .  A
C333        C334   1.392       .  A
C333        H340   1.085       .  S
C334        S336   1.805       .  S
S335        H338   1.406       .  S
S336        H337   1.407       .  S
C341        C342   1.397       .  A
C341        C346   1.416       .  A
C342        C343   1.393       .  A
C342        H351   1.084       .  S
C343        C344   1.417       .  A
C343        S347   1.806       .  S
C344        C345   1.399       .  A
C345        C346   1.401       .  A
C345        H352   1.083       .  S
C346        S348   1.802       .  S
S347        H350   1.407       .  S
S348        H349   1.407       .  S
C353        C354   1.402       .  A
C353        C358   1.410       .  A
C354        C355   1.389       .  A
C354        H363   1.085       .  S
C355        C356   1.407       .  A
C355        S359   1.805       .  S
C356        C357   1.403       .  A
C357        C358   1.399       .  A
C357        H364   1.084       .  S
C358        S360   1.804       .  S
S359        H362   1.406       .  S
S360        H361   1.404       .  S
C365        C366   1.395       .  A
C365        C370   1.413       .  A
C366        C367   1.396       .  A
C366        H375   1.083       .  S
C367        C368   1.413       .  A
C367        S371   1.796       .  S
C368        C369   1.399       .  A
C369        C370   1.396       .  A
C369        H376   1.084       .  S
C370        S372   1.804       .  S
S371        H374   1.407       .  S
S372        H373   1.406       .  S
C377        C378   1.417       .  A
C377        C382   1.425       .  A
C378        C379   1.396       .  A
C378        H387   1.082       .  S
C379        C380   1.406       .  A
C379        S383   1.804       .  S
C380        C381   1.397       .  A
C381        C382   1.396       .  A
C381        H388   1.084       .  S
C382        S384   1.794       .  S
S383        H386   1.406       .  S
S384        H385   1.407       .  S
C389        C390   1.414       .  A
C389        C394   1.428       .  A
C390        C391   1.397       .  A
C390        H399   1.071       .  S
C391        C392   1.408       .  A
C391        S395   1.796       .  S
C392        C393   1.396       .  A
C393        C394   1.402       .  A
C393        H400   1.083       .  S
C394        S396   1.798       .  S
S395        H398   1.407       .  S
S396        H397   1.407       .  S
C401        C402   1.416       .  A
C401        C406   1.430       .  A
C402        C403   1.394       .  A
C402        H411   1.079       .  S
C403        C404   1.405       .  A
C403        S407   1.806       .  S
C404        C405   1.396       .  A
C405        C406   1.403       .  A
C405        H412   1.083       .  S
C406        S408   1.805       .  S
S407        H410   1.406       .  S
S408        H409   1.407       .  S
C413        C414   1.399       .  A
C413        C418   1.405       .  A
C414        C415   1.399       .  A
C414        H423   1.084       .  S
C415        C416   1.429       .  A
C415        S419   1.800       .  S
C416        C417   1.421       .  A
C417        C418   1.402       .  A
C417        H424   1.084       .  S
C418        S420   1.804       .  S
S419        H422   1.408       .  S
S420        H421   1.405       .  S
C425        C426   1.418       .  A
C425        C430   1.428       .  A
C426        C427   1.399       .  A
C426        H435   1.073       .  S
C427        C428   1.405       .  A
C427        S431   1.804       .  S
C428        C429   1.392       .  A
C429        C430   1.402       .  A
C429        H436   1.083       .  S
C430        S432   1.798       .  S
S431        H434   1.406       .  S
S432        H433   1.406       .  S
C437        C438   1.404       .  A
C437        C442   1.406       .  A
C438        C439   1.396       .  A
C438        H447   1.083       .  S
C439        C440   1.411       .  A
C439        S443   1.809       .  S
C440        C441   1.407       .  A
C441        C442   1.398       .  A
C441        H448   1.082       .  S
C442        S444   1.804       .  S
S443        H446   1.401       .  S
S444        H445   1.403       .  S
C449        C450   1.393       .  A
C449        C454   1.409       .  A
C450        C451   1.401       .  A
C450        H459   1.083       .  S
C451        C452   1.431       .  A
C451        S455   1.808       .  S
C452        C453   1.412       .  A
C453        C454   1.398       .  A
C453        H460   1.079       .  S
C454        S456   1.805       .  S
S455        H458   1.407       .  S
S456        H457   1.406       .  S
C461        C462   1.398       .  A
C461        C466   1.418       .  A
C462        C463   1.395       .  A
C462        H471   1.084       .  S
C463        C464   1.414       .  A
C463        S467   1.803       .  S
C464        C465   1.394       .  A
C465        C466   1.396       .  A
C465        H472   1.084       .  S
C466        S468   1.794       .  S
S467        H470   1.405       .  S
S468        H469   1.397       .  S
C473        C474   1.403       .  A
C473        C478   1.410       .  A
C474        C475   1.394       .  A
C474        H483   1.084       .  S
C475        C476   1.411       .  A
C475        S479   1.805       .  S
C476        C477   1.405       .  A
C477        C478   1.401       .  A
C477        H484   1.083       .  S
C478        S480   1.804       .  S
S479        H482   1.406       .  S
S480        H481   1.406       .  S
C485        C486   1.397       .  A
C485        C490   1.414       .  A
C486        C487   1.393       .  A
C486        H495   1.083       .  S
C487        C488   1.414       .  A
C487        S491   1.805       .  S
C488        C489   1.394       .  A
C489        C490   1.398       .  A
C489        H496   1.083       .  S
C490        S492   1.797       .  S
S491        H494   1.405       .  S
S492        H493   1.407       .  S
C497        C498   1.410       .  A
C497        C502   1.427       .  A
C498        C499   1.392       .  A
C498        H507   1.071       .  S
C499        C500   1.408       .  A
C499        S503   1.803       .  S
C500        C501   1.398       .  A
C501        C502   1.403       .  A
C501        H508   1.083       .  S
C502        S504   1.809       .  S
S503        H506   1.407       .  S
S504        H505   1.407       .  S
C509        C510   1.397       .  A
C509        C514   1.411       .  A
C510        C511   1.395       .  A
C510        H519   1.083       .  S
C511        C512   1.425       .  A
C511        S515   1.798       .  S
C512        C513   1.413       .  A
C513        C514   1.399       .  A
C513        H520   1.081       .  S
C514        S516   1.803       .  S
S515        H518   1.406       .  S
S516        H517   1.406       .  S
C521        C522   1.414   1_455  A
C521        C526   1.410       .  A
C522        C523   1.404       .  A
C522        H531   1.084       .  S
C523        C524   1.408   1_655  A
C523        S527   1.804       .  S
C524        C525   1.414       .  A
C525        C526   1.407       .  A
C525        H532   1.081       .  S
C526        S528   1.800       .  S
S527        H530   1.406       .  S
S528        H529   1.407       .  S
C533        C534   1.422       .  A
C533        C538   1.413       .  A
C534        C535   1.418       .  A
C534        H543   1.079       .  S
C535        C536   1.410       .  A
C535        S539   1.805       .  S
C536        C537   1.416   1_545  A
C537        C538   1.408   1_565  A
C537        H544   1.084       .  S
C538        S540   1.804   1_545  S
S539        H542   1.406       .  S
S540        H541   1.407       .  S
C545        C546   1.401       .  A
C545        C550   1.432       .  A
C546        C547   1.410       .  A
C546        H555   1.084       .  S
C547        C548   1.425       .  A
C547        S551   1.803   1_655  S
C548        C549   1.398       .  A
C549        C550   1.406       .  A
C549        H556   1.084       .  S
C550        S552   1.802       .  S
S551        H554   1.408       .  S
S552        H553   1.392       .  S
C557        C558   1.406       .  A
C557        C562   1.421       .  A
C558        C559   1.419       .  A
C558        H567   1.083   1_565  S
C559        C560   1.428       .  A
C559        S563   1.804   1_565  S
C560        C561   1.401       .  A
C561        C562   1.397       .  A
C561        H568   1.079       .  S
C562        S564   1.805       .  S
S563        H566   1.407       .  S
S564        H565   1.406       .  S
C569        C570   1.403       .  A
C569        C574   1.431       .  A
C570        C571   1.410   1_545  A
C570        H579   1.083   1_545  S
C571        C572   1.420   1_565  A
C571        S575   1.803       .  S
C572        C573   1.394       .  A
C573        C574   1.401       .  A
C573        H580   1.083       .  S
C574        S576   1.798       .  S
S575        H578   1.408       .  S
S576        H577   1.403       .  S
C581        C582   1.397       .  A
C581        C586   1.425   1_455  A
C582        C583   1.404       .  A
C582        H591   1.084       .  S
C583        C584   1.437       .  A
C583        S587   1.809       .  S
C584        C585   1.402       .  A
C585        C586   1.408   1_455  A
C585        H592   1.084       .  S
C586        S588   1.803       .  S
S587        H590   1.400       .  S
S588        H589   1.408       .  S
C593        C594   1.394       .  A
C593        C598   1.422   1_565  A
C594        C595   1.411       .  A
C594        H603   1.082       .  S
C595        C596   1.443       .  A
C595        S599   1.807       .  S
C596        C597   1.406       .  A
C597        C598   1.406   1_565  A
C597        H604   1.082   1_565  S
C598        S600   1.803       .  S
S599        H602   1.407       .  S
S600        H601   1.407       .  S
C605        C606   1.402   1_655  A
C605        C610   1.422       .  A
C606        C607   1.409       .  A
C606        H615   1.084       .  S
C607        C608   1.418       .  A
C607        S611   1.800       .  S
C608        C609   1.395   1_455  A
C609        C610   1.404       .  A
C609        H616   1.083       .  S
C610        S612   1.800       .  S
S611        H614   1.406       .  S
S612        H613   1.406       .  S
