geometry optimzed in LAMMPS
_audit_creation_date              2020-12-01 
_audit_creation_method            'lammps2cif' 
_symmetry_space_group_name_H-M    'P1' 
_symmetry_Int_Tables_number       1 
_symmetry_cell_setting            triclinic 
loop_ 
_symmetry_equiv_pos_as_xyz 
  x,y,z 
_cell_length_a                    23.7820277 
_cell_length_b                    24.221099633829827 
_cell_length_c                    23.7507356033254 
_cell_angle_alpha                 89.79865154387194 
_cell_angle_beta                  86.98838319835792 
_cell_angle_gamma                 90.67268569485242 
loop_ 
_atom_site_label 
_atom_site_type_symbol 
_atom_site_fract_x 
_atom_site_fract_y 
_atom_site_fract_z 
_atom_site_charge 
O1          O  0.92022468  0.97649001  0.67715557    -0.74000
O2          O  0.07360948  0.02661432  0.69955010    -0.74000
O3          O  0.02071064  0.92756570  0.68506508    -0.74100
O4          O  0.97297078  0.07738390  0.68816106    -0.74100
O5          O  0.95610299  0.07235134  0.78089662    -0.74100
O6          O  0.00677570  0.92049879  0.77826240    -0.74000
O7          O  0.05449710  0.02091835  0.79175429    -0.74000
O8          O  0.90679801  0.97182639  0.77077157    -0.74100
Ni9        Ni  0.99731446  0.00246407  0.68404648     1.25400
Ni10       Ni  0.98025011  0.99627450  0.78355387     1.25400
C11         C  0.88957822  0.96363157  0.72159348     0.88200
C12         C  0.08928792  0.03157538  0.75039833     0.88100
C13         C  0.02356518  0.89977046  0.73055496     0.88100
C14         C  0.95715392  0.10028529  0.73472179     0.88300
O15         O  0.91450364  0.96465639  0.29143851    -0.74000
O16         O  0.07138219  0.01605517  0.30282314    -0.74000
O17         O  0.96795433  0.06264632  0.31075509    -0.74100
O18         O  0.01878271  0.91582044  0.28777300    -0.74100
O19         O  0.02372749  0.92885822  0.19464604    -0.74100
O20         O  0.97506864  0.07848721  0.21867484    -0.74000
O21         O  0.07347151  0.02676960  0.21022056    -0.74000
O22         O  0.92473000  0.98239748  0.19972618    -0.74100
Ni23       Ni  0.99275962  0.98894661  0.30184544     1.25400
Ni24       Ni  0.99939112  0.00442139  0.20290067     1.25400
C25         C  0.89409475  0.96617713  0.24207627     0.88200
C26         C  0.09777697  0.03143949  0.25637379     0.88100
C27         C  0.96323904  0.09523973  0.26914456     0.88100
C28         C  0.03132917  0.89858151  0.23797339     0.88300
N29         N  0.20562394  0.35817342  0.00842113    -0.36200
N30         N  0.20840149  0.43917185  0.09297999    -0.56700
N31         N  0.17073400  0.51986527  0.00936520    -0.36200
N32         N  0.16322408  0.43476509  0.92551564    -0.56700
C33         C  0.21420814  0.32690159  0.05434694     0.27400
C34         C  0.18876361  0.32373717  0.96809763     0.27400
C35         C  0.16280966  0.54855960  0.05798890     0.27400
C36         C  0.14885563  0.54950990  0.96722421     0.27400
C37         C  0.23853253  0.40077001  0.11914231     0.36000
C38         C  0.21285738  0.48594726  0.12261857     0.36000
C39         C  0.17411711  0.39100623  0.89160943     0.36000
C40         C  0.15497008  0.47825447  0.89124043     0.36000
C41         C  0.20171689  0.27234467  0.04342395    -0.21500
C42         C  0.18568227  0.27016750  0.98903932    -0.21500
C43         C  0.13535837  0.59722777  0.04650222    -0.21500
C44         C  0.12827244  0.59864013  0.98941814    -0.21500
C45         C  0.26233229  0.42298745  0.16597818    -0.22500
C46         C  0.24582747  0.47726097  0.16836779    -0.22500
C47         C  0.16958125  0.40566501  0.83576472    -0.22500
C48         C  0.15598447  0.46058827  0.83554935    -0.22500
C49         C  0.24065334  0.34519869  0.10266083    -0.17900
C50         C  0.18737217  0.33780619  0.91067813    -0.17900
C51         C  0.14919052  0.53401440  0.90922575    -0.17900
C52         C  0.18370812  0.53476264  0.11150088    -0.17900
H53         H  0.20726275  0.23750972  0.07069510     0.15000
H54         H  0.17632492  0.23267237  0.96673873     0.15000
H55         H  0.12324203  0.62964715  0.07575600     0.15000
H56         H  0.10983202  0.63253254  0.96777153     0.15000
H57         H  0.28763162  0.40202859  0.19581487     0.13300
H58         H  0.25608639  0.50673847  0.20052202     0.13300
H59         H  0.17513079  0.37946174  0.79911981     0.13300
H60         H  0.14911661  0.48484177  0.79825124     0.13300
H61         H  0.22124702  0.39825848  0.00106624     0.26600
H62         H  0.19551428  0.48465047  0.00407021     0.26600
C63         C  0.68237380  0.84261544  0.78272806    -0.02100
C64         C  0.68670937  0.85708148  0.17912465    -0.02100
C65         C  0.32257355  0.14194743  0.20994720    -0.02100
C66         C  0.29607047  0.14231656  0.81704993    -0.02100
C67         C  0.53983618  0.96711150  0.01766270     0.02700
C68         C  0.54058374  0.97022650  0.95718498     0.02700
C69         C  0.49751491  0.00177312  0.93336532    -0.17800
C70         C  0.45336707  0.02732285  0.96598243     0.02700
C71         C  0.45354667  0.02332770  0.02569685     0.02700
C72         C  0.49463482  0.99096766  0.04945531    -0.17800
H73         H  0.49285814  0.98660642  0.09499182     0.04700
H74         H  0.49746640  0.00560800  0.88787982     0.04700
N75         N  0.79204639  0.63663762  0.99757034    -0.36200
N76         N  0.79363793  0.55327982  0.91536877    -0.56700
N77         N  0.82072417  0.47435429  0.00415482    -0.36200
N78         N  0.82094793  0.56174644  0.08631709    -0.56700
C79         C  0.79012493  0.66675388  0.94982116     0.27400
C80         C  0.80625391  0.67152243  0.03865776     0.27400
C81         C  0.83433330  0.44493076  0.95714919     0.27400
C82         C  0.84317757  0.44828923  0.04823696     0.27400
C83         C  0.76794231  0.59211919  0.88519215     0.36000
C84         C  0.79085003  0.50591603  0.88632823     0.36000
C85         C  0.80273350  0.60500744  0.11749250     0.36000
C86         C  0.81940062  0.51792492  0.12142088     0.36000
C87         C  0.80525027  0.72092468  0.96015759    -0.21500
C88         C  0.81507862  0.72413242  0.01639581    -0.21500
C89         C  0.86500766  0.39906064  0.97181702    -0.21500
C90         C  0.87040410  0.40112963  0.02933678    -0.21500
C91         C  0.74880163  0.56952746  0.83624125    -0.22500
C92         C  0.76429295  0.51492378  0.83641133    -0.22500
C93         C  0.79093776  0.58914916  0.17296485    -0.22500
C94         C  0.80196484  0.53374325  0.17559766    -0.22500
C95         C  0.76569174  0.64819166  0.90053142    -0.17900
C96         C  0.79880018  0.65895725  0.09637800    -0.17900
C97         C  0.83605047  0.46444869  0.10538270    -0.17900
C98         C  0.81622577  0.45618888  0.90224033    -0.17900
H99         H  0.80584517  0.75512770  0.93105822     0.15000
H100        H  0.82393667  0.76178513  0.03859983     0.15000
H101        H  0.88094755  0.36676866  0.94416992     0.15000
H102        H  0.89141506  0.37110327  0.05446028     0.15000
H103        H  0.72746365  0.59033397  0.80324482     0.13300
H104        H  0.75691029  0.48537782  0.80348553     0.13300
H105        H  0.77639231  0.61485484  0.20782732     0.13300
H106        H  0.79721061  0.50800191  0.21293297     0.13300
H107        H  0.77331351  0.59821895  0.00436339     0.26600
H108        H  0.79279279  0.50642776  0.00690276     0.26600
N109        N  0.36105407  0.77509691  0.49917977    -0.36200
N110        N  0.43655490  0.82140487  0.41430351    -0.56700
N111        N  0.52821419  0.81736760  0.48818480    -0.36200
N112        N  0.45054528  0.76980159  0.57491395    -0.56700
C113        C  0.33237653  0.76719654  0.45220515     0.27400
C114        C  0.33667974  0.74207728  0.53957113     0.27400
C115        C  0.55330105  0.81150223  0.43593046     0.27400
C116        C  0.56175010  0.79369063  0.52541175     0.27400
C117        C  0.38760607  0.83146050  0.39070581     0.36000
C118        C  0.47645836  0.85239704  0.38688896     0.36000
C119        C  0.40698181  0.75615833  0.61145554     0.36000
C120        C  0.49460148  0.78191980  0.60650374     0.36000
C121        C  0.28968763  0.72864782  0.46299531    -0.21500
C122        C  0.29041355  0.71532940  0.51837401    -0.21500
C123        C  0.60210138  0.78094568  0.44061711    -0.21500
C124        C  0.60852543  0.77177937  0.49734172    -0.21500
C125        C  0.39509444  0.87193760  0.34971402    -0.22500
C126        C  0.45164633  0.88667195  0.34856091    -0.22500
C127        C  0.42373424  0.75809829  0.66620172    -0.22500
C128        C  0.47842673  0.77571491  0.66310941    -0.22500
C129        C  0.33982055  0.79794069  0.40172586    -0.17900
C130        C  0.35364247  0.73800733  0.59551786    -0.17900
C131        C  0.55023849  0.79196120  0.58415720    -0.17900
C132        C  0.53328497  0.83605791  0.38588953    -0.17900
H133        H  0.25909865  0.71279495  0.43503579     0.15000
H134        H  0.25849815  0.68972135  0.53921519     0.15000
H135        H  0.63009593  0.76583443  0.40700746     0.15000
H136        H  0.64226658  0.74945478  0.51567978     0.15000
H137        H  0.36399799  0.88705841  0.32195723     0.13300
H138        H  0.47301303  0.91464504  0.31868765     0.13300
H139        H  0.40003897  0.74669010  0.70464863     0.13300
H140        H  0.50329156  0.77981548  0.69907798     0.13300
H141        H  0.39094224  0.80603123  0.50543256     0.26600
H142        H  0.49267631  0.84058658  0.49897693     0.26600
C143        C  0.13972553  0.68439666  0.70920031    -0.02100
C144        C  0.15072420  0.69942300  0.29402777    -0.02100
C145        C  0.87043178  0.31957822  0.30278624    -0.02100
C146        C  0.85982150  0.31990463  0.69961965    -0.02100
C147        C  0.03667809  0.55474639  0.47104529     0.02700
C148        C  0.03995803  0.54563650  0.53065474     0.02700
C149        C  0.00410326  0.50485266  0.55616688    -0.17800
C150        C  0.96603789  0.47198570  0.52701149     0.02700
C151        C  0.96657230  0.47803644  0.46725945     0.02700
C152        C  0.00127202  0.51948665  0.44096423    -0.17800
H153        H  0.00174841  0.52356547  0.39542927     0.04700
H154        H  0.00454282  0.49928110  0.60118859     0.04700
N155        N  0.63770788  0.21592118  0.51047384    -0.36200
N156        N  0.56030672  0.19730331  0.42319256    -0.56700
N157        N  0.47188511  0.18230339  0.51160645    -0.36200
N158        N  0.55365451  0.20128181  0.59800109    -0.56700
C159        C  0.67200408  0.21038983  0.46407458     0.27400
C160        C  0.66976697  0.21059691  0.55527835     0.27400
C161        C  0.44666535  0.16141650  0.46615412     0.27400
C162        C  0.44311997  0.16329553  0.55878535     0.27400
C163        C  0.60297022  0.22161190  0.39200098     0.36000
C164        C  0.51510501  0.19709807  0.39125923     0.36000
C165        C  0.59415129  0.22529980  0.62791482     0.36000
C166        C  0.50483973  0.20510444  0.62911553     0.36000
C167        C  0.72614572  0.19902776  0.47905813    -0.21500
C168        C  0.72480820  0.19920241  0.53683654    -0.21500
C169        C  0.40083892  0.12907204  0.48471774    -0.21500
C170        C  0.39888736  0.12985912  0.54304026    -0.21500
C171        C  0.58538231  0.23613246  0.33946880    -0.22500
C172        C  0.52985280  0.21961540  0.33852734    -0.22500
C173        C  0.57117189  0.24434200  0.67880072    -0.22500
C174        C  0.51438785  0.23159672  0.67958221    -0.22500
C175        C  0.65795887  0.22817276  0.41049499    -0.17900
C176        C  0.65190935  0.22596316  0.61046380    -0.17900
C177        C  0.45404206  0.17832787  0.61527056    -0.17900
C178        C  0.46168196  0.17465703  0.40875081    -0.17900
H179        H  0.76344834  0.19537114  0.45122393     0.15000
H180        H  0.76127403  0.19514818  0.56162468     0.15000
H181        H  0.37155254  0.10745529  0.45899349     0.15000
H182        H  0.36784213  0.10887407  0.57064626     0.15000
H183        H  0.61013569  0.25548235  0.30515051     0.13300
H184        H  0.50355824  0.22411562  0.30305694     0.13300
H185        H  0.59313385  0.26411020  0.71218720     0.13300
H186        H  0.48389972  0.23953361  0.71395921     0.13300
H187        H  0.59821018  0.23400958  0.51095274     0.26600
H188        H  0.50315369  0.21278826  0.51046675     0.26600
C189        C  0.88611796  0.41663767  0.65786048    -0.05400
C190        C  0.88043522  0.35896667  0.64875198     0.00600
C191        C  0.88900800  0.34201952  0.59070670    -0.08000
C192        C  0.91820489  0.37855186  0.55189809    -0.05400
C193        C  0.92647666  0.43499721  0.56329498     0.00600
C194        C  0.90239995  0.45457512  0.61517917    -0.07900
C195        C  0.89159056  0.51528148  0.62750515     0.62500
H196        H  0.87433626  0.43459702  0.69801850     0.13200
H197        H  0.93410619  0.36231855  0.51257639     0.13200
C198        C  0.86398367  0.28932180  0.56633415     0.62700
F199        F  0.83737747  0.52112162  0.65069736    -0.22500
F200        F  0.89613716  0.54764495  0.57934574    -0.19800
F201        F  0.92888859  0.53456599  0.66588532    -0.19500
F202        F  0.87452121  0.24299957  0.59753553    -0.19500
F203        F  0.88485808  0.27956538  0.51182729    -0.19800
F204        F  0.80665489  0.29523540  0.56393041    -0.22500
C205        C  0.78802216  0.23904154  0.68383384    -0.05400
C206        C  0.79934496  0.29699747  0.68280364     0.00600
C207        C  0.75248347  0.33119128  0.66726626    -0.08000
C208        C  0.70329830  0.30544200  0.64805312    -0.05400
C209        C  0.69559804  0.24839631  0.64729777     0.00600
C210        C  0.73685571  0.21500549  0.66944185    -0.07900
C211        C  0.73052169  0.15309444  0.67623521     0.62500
H212        H  0.81968935  0.20968120  0.69295903     0.13200
H213        H  0.67115175  0.32993174  0.62951531     0.13200
C214        C  0.75280330  0.39415709  0.66276628     0.62700
F215        F  0.77364396  0.12779416  0.64510483    -0.22500
F216        F  0.67976205  0.13253994  0.65905507    -0.19800
F217        F  0.73429210  0.13994048  0.73262657    -0.19500
F218        F  0.77652780  0.41916674  0.70768806    -0.19500
F219        F  0.69862036  0.41453067  0.66238998    -0.19800
F220        F  0.78044343  0.41040398  0.61275791    -0.22500
C221        C  0.87314461  0.40894436  0.36078118    -0.05400
C222        C  0.89896950  0.35638180  0.35079884     0.00600
C223        C  0.94970382  0.34670978  0.38218851    -0.08000
C224        C  0.96931375  0.38939941  0.41708888    -0.05400
C225        C  0.93973008  0.43735103  0.42936060     0.00600
C226        C  0.89101590  0.44793140  0.40045648    -0.07900
C227        C  0.85849160  0.50071517  0.41117633     0.62500
H228        H  0.83658036  0.41889995  0.33762962     0.13200
H229        H  0.00776955  0.38498670  0.43903219     0.13200
C230        C  0.98608007  0.29449934  0.38369587     0.62700
F231        F  0.89236672  0.54605912  0.39741639    -0.22500
F232        F  0.84108056  0.50344147  0.46757906    -0.19800
F233        F  0.81134986  0.50334904  0.37953507    -0.19500
F234        F  0.00147523  0.27506074  0.33081108    -0.19500
F235        F  0.95849563  0.25449938  0.41644256    -0.19800
F236        F  0.03668557  0.30356181  0.40875056    -0.22500
C237        C  0.78310790  0.32003543  0.37620282    -0.05400
C238        C  0.80825271  0.29830614  0.32537794     0.00600
C239        C  0.77568745  0.25375922  0.30016981    -0.08000
C240        C  0.72674172  0.23276203  0.32909609    -0.05400
C241        C  0.70264912  0.25824007  0.37634088     0.00600
C242        C  0.72897714  0.30554530  0.39745089    -0.07900
C243        C  0.70257714  0.34081791  0.44434805     0.62500
H244        H  0.80421853  0.34861897  0.40221002     0.13200
H245        H  0.70648249  0.19545857  0.31448194     0.13200
C246        C  0.78878318  0.22291984  0.24526515     0.62700
F247        F  0.70954713  0.39603430  0.43012508    -0.22500
F248        F  0.72885404  0.33111212  0.49383827    -0.19800
F249        F  0.64542695  0.33080788  0.45322178    -0.19500
F250        F  0.82303960  0.25148532  0.20765078    -0.19500
F251        F  0.73955001  0.21288924  0.21800469    -0.19800
F252        F  0.81268246  0.17262607  0.25672659    -0.22500
C253        C  0.04175114  0.64516059  0.41804521    -0.05400
C254        C  0.06954692  0.59786810  0.43609842     0.00600
C255        C  0.12470217  0.58899220  0.41382242    -0.08000
C256        C  0.14874216  0.62603604  0.37279642    -0.05400
C257        C  0.11956972  0.67107559  0.34917393     0.00600
C258        C  0.06693952  0.68462256  0.37944205    -0.07900
C259        C  0.03508392  0.73913943  0.37869667     0.62500
H260        H  0.99972276  0.65235910  0.43631642     0.13200
H261        H  0.19056789  0.61771129  0.35625760     0.13200
C262        C  0.15706871  0.53858253  0.43117163     0.62700
F263        F  0.01863218  0.75353877  0.43347155    -0.22500
F264        F  0.98707678  0.73269073  0.34893157    -0.19800
F265        F  0.06563055  0.78357633  0.35745563    -0.19500
F266        F  0.12712069  0.49108565  0.41931451    -0.19500
F267        F  0.16514496  0.54052669  0.48830131    -0.19800
F268        F  0.20938082  0.53560732  0.40299708    -0.22500
C269        C  0.10781990  0.59165406  0.66556626    -0.05400
C270        C  0.11401347  0.64965729  0.65937698     0.00600
C271        C  0.10366611  0.67119798  0.60346477    -0.08000
C272        C  0.07800770  0.63648508  0.56421461    -0.05400
C273        C  0.07468515  0.57931406  0.57040188     0.00600
C274        C  0.09660201  0.55667636  0.62008543    -0.07900
C275        C  0.11295819  0.49657725  0.62628119     0.62500
H276        H  0.11769601  0.57170806  0.70435377     0.13200
H277        H  0.05932797  0.65479118  0.52840077     0.13200
C278        C  0.11601132  0.72997290  0.58224343     0.62700
F279        F  0.16743458  0.49417952  0.64403482    -0.22500
F280        F  0.11184974  0.46804154  0.57603310    -0.19800
F281        F  0.07735449  0.47077790  0.66638035    -0.19500
F282        F  0.16946068  0.74676576  0.59443843    -0.19500
F283        F  0.07617178  0.76595279  0.60440995    -0.19800
F284        F  0.11421001  0.73363964  0.52407972    -0.22500
C285        C  0.30836777  0.74352114  0.32269671    -0.05400
C286        C  0.29746670  0.78807740  0.35900459     0.00600
C287        C  0.24137080  0.80129518  0.37361010    -0.08000
C288        C  0.19879080  0.76492510  0.35875752    -0.05400
C289        C  0.20725022  0.72189709  0.31886212     0.00600
C290        C  0.26533394  0.70728449  0.30541240    -0.07900
C291        C  0.28814610  0.65380432  0.27905769     0.62500
H292        H  0.35210870  0.73258143  0.31420581     0.13200
H293        H  0.15706075  0.77382671  0.37518102     0.13200
C294        C  0.22525426  0.85051815  0.40990135     0.62700
F295        F  0.33113608  0.63425321  0.31057951    -0.22500
F296        F  0.31049224  0.66450989  0.22514895    -0.19800
F297        F  0.24997484  0.61101988  0.27729764    -0.19500
F298        F  0.27001397  0.88676857  0.41536131    -0.19500
F299        F  0.20604861  0.83253575  0.46287543    -0.19800
F300        F  0.18269239  0.87895897  0.38540173    -0.22500
C301        C  0.29106900  0.74887927  0.68175843    -0.05400
C302        C  0.31251974  0.71474017  0.63870714     0.00600
C303        C  0.28769101  0.66231391  0.63294332    -0.08000
C304        C  0.23186377  0.65569914  0.65309840    -0.05400
C305        C  0.20489092  0.69383435  0.69127113     0.00600
C306        C  0.24325027  0.73291750  0.71519962    -0.07900
C307        C  0.23761087  0.76088595  0.77227065     0.62500
H308        H  0.31246509  0.78742572  0.69050982     0.13200
H309        H  0.21131885  0.61789400  0.64131026     0.13200
C310        C  0.31695864  0.61392658  0.60385979     0.62700
F311        F  0.22853897  0.81679143  0.76601610    -0.22500
F312        F  0.28744049  0.75467224  0.79910920    -0.19800
F313        F  0.19567643  0.73855735  0.80703351    -0.19500
F314        F  0.28671508  0.59568188  0.55917188    -0.19500
F315        F  0.31981217  0.57108985  0.64220806    -0.19800
F316        F  0.37122475  0.62707710  0.58412189    -0.22500
C317        C  0.81178644  0.36171052  0.22438835    -0.05400
C318        C  0.86474386  0.35924090  0.24995010     0.00600
C319        C  0.90800605  0.39702710  0.22672950    -0.08000
C320        C  0.89681089  0.42898210  0.17867253    -0.05400
C321        C  0.84642922  0.42460865  0.15139832     0.00600
C322        C  0.80322084  0.39023454  0.17422886    -0.07900
C323        C  0.74763263  0.38415631  0.14574027     0.62500
H324        H  0.77547569  0.34037290  0.24220845     0.13200
H325        H  0.92741199  0.45922413  0.16219424     0.13200
C326        C  0.96469924  0.41006817  0.25161229     0.62700
F327        F  0.72155996  0.43472704  0.14309781    -0.22500
F328        F  0.71083413  0.34768892  0.17418165    -0.19800
F329        F  0.75761248  0.36426621  0.09169235    -0.19500
F330        F  0.98795112  0.36515838  0.27634147    -0.19500
F331        F  0.95878916  0.45233122  0.29025670    -0.19800
F332        F  0.00376546  0.42735398  0.20988981    -0.22500
C333        C  0.88214999  0.41613127  0.83141393    -0.05400
C334        C  0.82822271  0.41539994  0.85719135     0.00600
C335        C  0.78778380  0.37789303  0.83876058    -0.08000
C336        C  0.80089048  0.34724977  0.79015471    -0.05400
C337        C  0.85323908  0.35208524  0.75808717     0.00600
C338        C  0.89757253  0.38183667  0.78552029    -0.07900
C339        C  0.96097209  0.37930236  0.77043854     0.62500
H340        H  0.91260988  0.44427724  0.84844466     0.13200
H341        H  0.76845012  0.31882948  0.77809612     0.13200
C342        C  0.72993675  0.36869116  0.86777309     0.62700
F343        F  0.97512129  0.40745520  0.72128655    -0.22500
F344        F  0.97886554  0.32557584  0.76675545    -0.19800
F345        F  0.99221090  0.40348927  0.81164793    -0.19500
F346        F  0.68910924  0.38006211  0.83013087    -0.19500
F347        F  0.72010891  0.40103436  0.91498474    -0.19800
F348        F  0.72457799  0.31397873  0.88429800    -0.22500
C349        C  0.35887716  0.18737181  0.66396189    -0.05400
C350        C  0.41215503  0.16367284  0.66274751     0.00600
C351        C  0.42685998  0.13195737  0.70944586    -0.08000
C352        C  0.39119136  0.13135229  0.75833758    -0.05400
C353        C  0.33573803  0.15306965  0.76122716     0.00600
C354        C  0.31903690  0.18135032  0.71029971    -0.07900
C355        C  0.26288291  0.21063528  0.70264870     0.62500
H356        H  0.34938260  0.21253534  0.62797840     0.13200
H357        H  0.40901397  0.11282827  0.79431200     0.13200
C358        C  0.48014362  0.09788888  0.71012957     0.62700
F359        F  0.26291204  0.26137181  0.72888373    -0.22500
F360        F  0.21690701  0.18033487  0.72242834    -0.19800
F361        F  0.25422822  0.22019368  0.64622109    -0.19500
F362        F  0.51880771  0.12407358  0.74270559    -0.19500
F363        F  0.50433390  0.08916993  0.65673582    -0.19800
F364        F  0.46740908  0.04650696  0.73345968    -0.22500
C365        C  0.39326169  0.10947257  0.94668218    -0.05400
C366        C  0.40702057  0.05457692  0.93540554     0.00600
C367        C  0.37790613  0.02737479  0.89295647    -0.08000
C368        C  0.34560295  0.05861776  0.85684923    -0.05400
C369        C  0.33051517  0.11485794  0.86657725     0.00600
C370        C  0.35039245  0.13769287  0.91899418    -0.07900
C371        C  0.33059396  0.18826056  0.95255971     0.62500
H372        H  0.41450983  0.13003746  0.98015744     0.13200
H373        H  0.33095550  0.03746011  0.82021295     0.13200
C374        C  0.37739269  0.96521122  0.88473133     0.62700
F375        F  0.32527595  0.17454661  0.00905199    -0.22500
F376        F  0.27918830  0.20769720  0.94020140    -0.19800
F377        F  0.37027829  0.23020427  0.94687707    -0.19500
F378        F  0.39972434  0.93673771  0.92871359    -0.19500
F379        F  0.40713002  0.95252958  0.83511325    -0.19800
F380        F  0.32233856  0.94689366  0.88109624    -0.22500
C381        C  0.41467962  0.11282780  0.34164501    -0.05400
C382        C  0.42009100  0.16572145  0.36439328     0.00600
C383        C  0.39324643  0.21002644  0.33871095    -0.08000
C384        C  0.36569522  0.20052545  0.28887528    -0.05400
C385        C  0.35785456  0.14734954  0.26485244     0.00600
C386        C  0.38388811  0.10181978  0.29319061    -0.07900
C387        C  0.38642626  0.04229524  0.27155738     0.62500
H388        H  0.43762737  0.08015922  0.36115406     0.13200
H389        H  0.34982118  0.23700487  0.26949894     0.13200
C390        C  0.39268505  0.26886838  0.36110176     0.62700
F391        F  0.42583167  0.03838187  0.22699098    -0.22500
F392        F  0.33521457  0.02322377  0.25507605    -0.19800
F393        F  0.40244773  0.00620002  0.31293151    -0.19500
F394        F  0.41794683  0.30394311  0.32094024    -0.19500
F395        F  0.42000537  0.27521799  0.41061869    -0.19800
F396        F  0.33741590  0.28476038  0.37137066    -0.22500
C397        C  0.34060981  0.05978675  0.13915098    -0.05400
C398        C  0.36133791  0.10948800  0.16344102     0.00600
C399        C  0.41768619  0.12585750  0.14300659    -0.08000
C400        C  0.44195077  0.10021756  0.09390028    -0.05400
C401        C  0.41678426  0.05547108  0.06702708     0.00600
C402        C  0.36574396  0.03405394  0.09103974    -0.07900
C403        C  0.33801591  0.98342145  0.06627834     0.62500
H404        H  0.30409121  0.03930908  0.15799185     0.13200
H405        H  0.48361755  0.11245629  0.07766776     0.13200
C406        C  0.45639604  0.16568680  0.17365245     0.62700
F407        F  0.32601030  0.99404418  0.01108263    -0.22500
F408        F  0.28795167  0.96895607  0.09530817    -0.19800
F409        F  0.37368627  0.93886437  0.06787012    -0.19500
F410        F  0.47468608  0.14051625  0.22142934    -0.19500
F411        F  0.43081174  0.21446484  0.18868253    -0.19800
F412        F  0.50402415  0.17996468  0.14048006    -0.22500
C413        C  0.58683383  0.85207825  0.23074469    -0.05400
C414        C  0.64644415  0.84967093  0.23390466     0.00600
C415        C  0.66578082  0.83764424  0.28913614    -0.08000
C416        C  0.62852444  0.84814313  0.33569095    -0.05400
C417        C  0.57023748  0.84030329  0.33188862     0.00600
C418        C  0.55047208  0.83494547  0.27640359    -0.07900
C419        C  0.49634627  0.80481458  0.26152019     0.62500
H420        H  0.56791134  0.85784728  0.19086838     0.13200
H421        H  0.64550457  0.85546472  0.37633362     0.13200
C422        C  0.72028630  0.80773747  0.30154599     0.62700
F423        F  0.50778510  0.76606524  0.22026058    -0.22500
F424        F  0.45872630  0.84163557  0.24039438    -0.19800
F425        F  0.47140738  0.77582622  0.30646563    -0.19500
F426        F  0.72562821  0.80096268  0.35891913    -0.19500
F427        F  0.76807203  0.83502619  0.28132399    -0.19800
F428        F  0.71918985  0.75546192  0.27864346    -0.22500
C429        C  0.63261564  0.93554179  0.13906927    -0.05400
C430        C  0.65263835  0.88124216  0.12837407     0.00600
C431        C  0.63884794  0.85849297  0.07378380    -0.08000
C432        C  0.59978373  0.88679420  0.04122982    -0.05400
C433        C  0.58409542  0.94112713  0.05172524     0.00600
C434        C  0.60515037  0.96737659  0.09974066    -0.07900
C435        C  0.60128653  0.02903862  0.11183132     0.62500
H436        H  0.64158401  0.95548645  0.17839991     0.13200
H437        H  0.58279359  0.86660262  0.00503412     0.13200
C438        C  0.66048549  0.80726327  0.04272005     0.62700
F439        F  0.65416599  0.04927122  0.12317283    -0.22500
F440        F  0.56534487  0.03753208  0.15862329    -0.19800
F441        F  0.58302524  0.05948032  0.06715827    -0.19500
F442        F  0.61864012  0.76721267  0.04486196    -0.19500
F443        F  0.70885731  0.78533623  0.06076836    -0.19800
F444        F  0.67278664  0.82072937  0.98661835    -0.22500
C445        C  0.77473617  0.79449929  0.16888611    -0.05400
C446        C  0.71495194  0.79877074  0.16880702     0.00600
C447        C  0.68515892  0.74674712  0.16204960    -0.08000
C448        C  0.71562720  0.70075565  0.14181454    -0.05400
C449        C  0.77388347  0.70226783  0.13282967     0.00600
C450        C  0.80442442  0.74790558  0.15090396    -0.07900
C451        C  0.86818692  0.75016648  0.15136569     0.62500
H452        H  0.80074297  0.82687962  0.18403994     0.13200
H453        H  0.69405519  0.66318261  0.13021340     0.13200
C454        C  0.62300277  0.73640540  0.17617414     0.62700
F455        F  0.88874506  0.79220732  0.11617389    -0.22500
F456        F  0.89318843  0.70136104  0.13425338    -0.19800
F457        F  0.88338863  0.76121931  0.20560927    -0.19500
F458        F  0.59091541  0.77343873  0.14852906    -0.19500
F459        F  0.61304260  0.73934750  0.23380513    -0.19800
F460        F  0.60513655  0.68430595  0.16044451    -0.22500
C461        C  0.65346777  0.86108875  0.67895573    -0.05400
C462        C  0.65099515  0.82544225  0.72700541     0.00600
C463        C  0.62176769  0.77298822  0.71871524    -0.08000
C464        C  0.60405323  0.75938501  0.66454499    -0.05400
C465        C  0.59667260  0.79998026  0.62391933     0.00600
C466        C  0.62295330  0.85176084  0.63057150    -0.07900
C467        C  0.61774322  0.89803883  0.58757907     0.62500
H468        H  0.67578059  0.89903783  0.67880158     0.13200
H469        H  0.58529165  0.71920150  0.65729134     0.13200
C470        C  0.59769613  0.73467893  0.76566270     0.62700
F471        F  0.64108410  0.94728737  0.60520877    -0.22500
F472        F  0.56166012  0.90762367  0.57872716    -0.19800
F473        F  0.64530882  0.88354872  0.53722813    -0.19500
F474        F  0.63661348  0.69588667  0.77972181    -0.19500
F475        F  0.57915812  0.76474465  0.81203372    -0.19800
F476        F  0.55111612  0.70512758  0.74926672    -0.22500
C477        C  0.66918471  0.90741821  0.87064901    -0.05400
C478        C  0.64338071  0.87947875  0.82577376     0.00600
C479        C  0.58406886  0.89053385  0.82365688    -0.08000
C480        C  0.55372440  0.90827268  0.87327190    -0.05400
C481        C  0.57953281  0.93777145  0.91609189     0.00600
C482        C  0.63937382  0.94129085  0.91074986    -0.07900
C483        C  0.67455292  0.98343360  0.94050199     0.62500
H484        H  0.71439170  0.90838091  0.87124743     0.13200
H485        H  0.50813656  0.90708486  0.87437275     0.13200
C486        C  0.55499838  0.90176956  0.76935114     0.62700
F487        F  0.71537166  0.95657545  0.96895138    -0.22500
F488        F  0.64370109  0.01603591  0.97774245    -0.19800
F489        F  0.70091942  0.01799854  0.90053816    -0.19500
F490        F  0.54281158  0.85382683  0.74227616    -0.19500
F491        F  0.58835524  0.93628770  0.73502365    -0.19800
F492        F  0.50439837  0.92869019  0.77886443    -0.22500
C493        C  0.67737546  0.76997267  0.86268122    -0.05400
C494        C  0.70105861  0.78657323  0.80906657     0.00600
C495        C  0.74025169  0.74839917  0.78111358    -0.08000
C496        C  0.75959671  0.70310894  0.81190068    -0.05400
C497        C  0.73745157  0.68998505  0.86572946     0.00600
C498        C  0.69116489  0.71986204  0.88823056    -0.07900
C499        C  0.65296687  0.69539361  0.93532600     0.62500
H500        H  0.64517848  0.79448318  0.88375255     0.13200
H501        H  0.79296713  0.67757794  0.79369162     0.13200
C502        C  0.76459288  0.75037925  0.72011080     0.62700
F503        F  0.60420405  0.72552455  0.94387422    -0.22500
F504        F  0.68008804  0.69341079  0.98520910    -0.19800
F505        F  0.63741868  0.64230997  0.92083403    -0.19500
F506        F  0.82276565  0.74816124  0.71951639    -0.19500
F507        F  0.75145053  0.79618558  0.68947848    -0.19800
F508        F  0.74529941  0.70442695  0.69216374    -0.22500
C509        C  0.20825204  0.20454011  0.83399200    -0.05400
C510        C  0.26836940  0.19971243  0.83181005     0.00600
C511        C  0.29962362  0.25041384  0.83971648    -0.08000
C512        C  0.26990220  0.29704567  0.86042229    -0.05400
C513        C  0.21133744  0.29644622  0.87069801     0.00600
C514        C  0.17948337  0.25157435  0.85290135    -0.07900
C515        C  0.11523734  0.25280113  0.85557279     0.62500
H516        H  0.18178082  0.17152318  0.82100034     0.13200
H517        H  0.29252808  0.33417774  0.87150654     0.13200
C518        C  0.36288985  0.25854292  0.82628241     0.62700
F519        F  0.09419327  0.25273010  0.91090415    -0.22500
F520        F  0.09220473  0.20774516  0.82893323    -0.19800
F521        F  0.09728264  0.29990887  0.82924533    -0.19500
F522        F  0.37266750  0.26853480  0.76937280    -0.19500
F523        F  0.39395378  0.21377656  0.84117404    -0.19800
F524        F  0.38386111  0.30348337  0.85474402    -0.22500
C525        C  0.24045917  0.28207421  0.18527353    -0.05400
C526        C  0.26880605  0.30297366  0.13696680     0.00600
C527        C  0.31799010  0.27702165  0.11620009    -0.08000
C528        C  0.33231232  0.22606208  0.13949795    -0.05400
C529        C  0.30414180  0.20183361  0.18821133     0.00600
C530        C  0.25868943  0.23477660  0.21397996    -0.07900
C531        C  0.22401958  0.22200829  0.26869955     0.62500
H532        H  0.20232139  0.30286612  0.19989052     0.13200
H533        H  0.36477041  0.20463150  0.11639569     0.13200
C534        C  0.35586980  0.30387336  0.06989937     0.62700
F535        F  0.20318992  0.27012324  0.29289665    -0.22500
F536        F  0.25469903  0.19779751  0.30925211    -0.19800
F537        F  0.17841833  0.18883428  0.25735730    -0.19500
F538        F  0.37381022  0.35491980  0.08830509    -0.19500
F539        F  0.32742037  0.31103116  0.02124644    -0.19800
F540        F  0.40310069  0.27271654  0.05648197    -0.22500
C541        C  0.20377214  0.62543041  0.15320886    -0.05400
C542        C  0.17600857  0.57480571  0.15855147     0.00600
C543        C  0.13886663  0.56463478  0.20555090    -0.08000
C544        C  0.13446123  0.60442641  0.24821845    -0.05400
C545        C  0.16087902  0.65748387  0.24382636     0.00600
C546        C  0.19296803  0.66911802  0.19109317    -0.07900
C547        C  0.21213075  0.72605453  0.16869111     0.62500
H548        H  0.23078070  0.63140252  0.11551109     0.13200
H549        H  0.10683939  0.59403641  0.28394402     0.13200
C550        C  0.10200136  0.51292265  0.20988582     0.62700
F551        F  0.24572959  0.72289007  0.11937667    -0.22500
F552        F  0.24380531  0.75425269  0.20597134    -0.19800
F553        F  0.16565354  0.75609276  0.15545590    -0.19500
F554        F  0.05974686  0.51743434  0.25194198    -0.19500
F555        F  0.13405212  0.46763654  0.22198620    -0.19800
F556        F  0.07654051  0.50421870  0.15956252    -0.22500
C557        C  0.10197538  0.61196797  0.85874716    -0.05400
C558        C  0.14865144  0.57788175  0.86415876     0.00600
C559        C  0.19371723  0.58386522  0.82366071    -0.08000
C560        C  0.18439247  0.61258883  0.77401172    -0.05400
C561        C  0.13999276  0.65129802  0.76837294     0.00600
C562        C  0.10308242  0.65607045  0.81909729    -0.07900
C563        C  0.07223222  0.70716796  0.84216195     0.62500
H564        H  0.06710900  0.60842073  0.88982338     0.13200
H565        H  0.21531006  0.60509606  0.74063522     0.13200
C566        C  0.25207751  0.55999133  0.82957734     0.62700
F567        F  0.07720053  0.71043459  0.89994352    -0.22500
F568        F  0.01545866  0.70332526  0.83335270    -0.19800
F569        F  0.09406923  0.75637827  0.82137616    -0.19500
F570        F  0.26045548  0.51661441  0.79250680    -0.19500
F571        F  0.26064777  0.54193891  0.88370487    -0.19800
F572        F  0.29224047  0.60049445  0.81634471    -0.22500
C573        C  0.03328429  0.79514998  0.23500492    -0.05400
C574        C  0.06181185  0.84606703  0.23266778     0.00600
C575        C  0.12025476  0.84677177  0.23646788    -0.08000
C576        C  0.14553672  0.80055741  0.25837441    -0.05400
C577        C  0.11772941  0.74851635  0.26662692     0.00600
C578        C  0.06205675  0.74512447  0.24500148    -0.07900
C579        C  0.03355576  0.69152604  0.22807287     0.62500
H580        H  0.98871035  0.79491093  0.22792683     0.13200
H581        H  0.18909241  0.80640152  0.26635183     0.13200
C582        C  0.15649726  0.89724720  0.22200067     0.62700
F583        F  0.98021921  0.70040426  0.20974331    -0.22500
F584        F  0.02793694  0.65477257  0.27237298    -0.19800
F585        F  0.06418336  0.66827448  0.18335365    -0.19500
F586        F  0.15782648  0.93075014  0.26860172    -0.19500
F587        F  0.13586919  0.92599451  0.17728953    -0.19800
F588        F  0.21113295  0.88241475  0.20616788    -0.22500
C589        C  0.17338786  0.07329024  0.19552098    -0.05400
C590        C  0.15643107  0.05628577  0.25044223     0.00600
C591        C  0.19442919  0.06579492  0.29328159    -0.08000
C592        C  0.24767204  0.09090432  0.27846249    -0.05400
C593        C  0.26437712  0.10997652  0.22270637     0.00600
C594        C  0.22368126  0.10090490  0.18067369    -0.07900
C595        C  0.22722150  0.11634996  0.11810413     0.62500
H596        H  0.14558105  0.06636348  0.16150424     0.13200
H597        H  0.27557380  0.09732720  0.31206897     0.13200
C598        C  0.17902382  0.05093802  0.35432444     0.62700
F599        F  0.22301650  0.06891760  0.08613928    -0.22500
F600        F  0.27517017  0.14312124  0.09928995    -0.19800
F601        F  0.18213192  0.14954489  0.10721552    -0.19500
F602        F  0.13072383  0.07833067  0.37237828    -0.19500
F603        F  0.22114699  0.06556862  0.38971431    -0.19800
F604        F  0.16992791  0.99469000  0.35944013    -0.22500
C605        C  0.95145676  0.19054416  0.23442004    -0.05400
C606        C  0.94377813  0.15293327  0.27905880     0.00600
C607        C  0.91722483  0.17099318  0.33025861    -0.08000
C608        C  0.89649838  0.22477323  0.33272036    -0.05400
C609        C  0.90295519  0.26436627  0.28844327     0.00600
C610        C  0.93191664  0.24558104  0.23614099    -0.07900
C611        C  0.94490329  0.27806611  0.18056062     0.62500
H612        H  0.97427613  0.17562310  0.19712358     0.13200
H613        H  0.87433546  0.23704296  0.37146705     0.13200
C614        C  0.91048662  0.13493408  0.38314263     0.62700
F615        F  0.98667548  0.31661577  0.18711733    -0.22500
F616        F  0.89857109  0.30268528  0.15970367    -0.19800
F617        F  0.96496420  0.24438618  0.13714495    -0.19500
F618        F  0.96296627  0.12085490  0.40083114    -0.19500
F619        F  0.87992397  0.08775779  0.37225514    -0.19800
F620        F  0.88236553  0.16143950  0.42766374    -0.22500
C621        C  0.83006614  0.93333819  0.17165638    -0.05400
C622        C  0.83608207  0.94774961  0.22834139     0.00600
C623        C  0.78638481  0.95181146  0.26344482    -0.08000
C624        C  0.73508632  0.93174182  0.24274728    -0.05400
C625        C  0.73338161  0.90347383  0.19030059     0.00600
C626        C  0.77853354  0.91790508  0.15061803    -0.07900
C627        C  0.77453194  0.91921239  0.08714783     0.62500
H628        H  0.86662141  0.93415064  0.14259533     0.13200
H629        H  0.69713316  0.93541462  0.26923204     0.13200
C630        C  0.78704781  0.97720063  0.32147829     0.62700
F631        F  0.73258253  0.95489555  0.07377127    -0.22500
F632        F  0.76422702  0.86766629  0.06676545    -0.19800
F633        F  0.82368976  0.93829883  0.05935197    -0.19500
F634        F  0.80875965  0.03019751  0.31673864    -0.19500
F635        F  0.81988542  0.94600993  0.35554305    -0.19800
F636        F  0.73356837  0.98004002  0.34725955    -0.22500
C637        C  0.24489881  0.07795786  0.74762793    -0.05400
C638        C  0.24866774  0.09769188  0.80356832     0.00600
C639        C  0.20606027  0.07653127  0.84386581    -0.08000
C640        C  0.15716901  0.05269381  0.82302821    -0.06400
C641        C  0.14754635  0.04908012  0.76510372     0.00600
C642        C  0.19343382  0.06060726  0.72632409    -0.07900
C643        C  0.18889544  0.05775165  0.66285636     0.62500
H644        H  0.28072207  0.08116232  0.71819942     0.13200
H645        H  0.12438587  0.03851894  0.85294058     0.13200
C646        C  0.20830322  0.07941146  0.90822012     0.62700
F647        F  0.14586977  0.09111354  0.64645814    -0.22500
F648        F  0.17879358  0.00420418  0.64703296    -0.19800
F649        F  0.23783493  0.07552168  0.63380029    -0.19500
F650        F  0.21501798  0.13267149  0.92566059    -0.19500
F651        F  0.25123767  0.04748761  0.92675452    -0.19800
F652        F  0.15928640  0.05996115  0.93598193    -0.22500
C653        C  0.01956480  0.79588995  0.73206883    -0.05400
C654        C  0.05129481  0.84503455  0.72664579     0.00600
C655        C  0.10823460  0.84178187  0.70770406    -0.08000
C656        C  0.13285787  0.79023972  0.70127613    -0.05400
C657        C  0.10465119  0.73948357  0.71261645     0.00600
C658        C  0.04409492  0.74306043  0.72198218    -0.07900
C659        C  0.00332457  0.69461945  0.71465476     0.62500
H660        H  0.97460142  0.79955041  0.74064608     0.13200
H661        H  0.17381957  0.79096821  0.68137763     0.13200
C662        C  0.14313651  0.89277109  0.69134825     0.62700
F663        F  0.99700268  0.68574430  0.65796311    -0.22500
F664        F  0.95040816  0.70558616  0.73889217    -0.19800
F665        F  0.02134502  0.64659950  0.73881819    -0.19500
F666        F  0.14309017  0.92838857  0.73650139    -0.19500
F667        F  0.12049862  0.91767949  0.64547115    -0.19800
F668        F  0.19876187  0.88115617  0.67609555    -0.22500
C669        C  0.83942555  0.88014198  0.74524385    -0.05400
C670        C  0.83644211  0.93208089  0.72022806     0.00600
C671        C  0.78393951  0.95847634  0.72087622    -0.08000
C672        C  0.73600240  0.93148065  0.74644224    -0.05400
C673        C  0.73866051  0.87781930  0.76966088     0.00600
C674        C  0.79480432  0.86075691  0.78072307    -0.07900
C675        C  0.81436305  0.83873505  0.83668508     0.62500
H676        H  0.88088650  0.86288166  0.75022510     0.13200
H677        H  0.69577708  0.95191780  0.74769770     0.13200
C678        C  0.77909782  0.01452167  0.69423531     0.62700
F679        F  0.84167097  0.78912658  0.82847684    -0.22500
F680        F  0.77194602  0.83262540  0.87779204    -0.19800
F681        F  0.85264720  0.87589221  0.85772794    -0.19500
F682        F  0.80944585  0.05273833  0.72363615    -0.19500
F683        F  0.72356494  0.03086198  0.69425574    -0.19800
F684        F  0.80049656  0.01281701  0.63897198    -0.22500
C685        C  0.88417891  0.23845691  0.76265063    -0.05400
C686        C  0.90044215  0.26980939  0.71317100     0.00600
C687        C  0.94878314  0.24875656  0.68087625    -0.08000
C688        C  0.96356326  0.19293024  0.68875559    -0.05400
C689        C  0.94073717  0.15995244  0.73334689     0.00600
C690        C  0.90338779  0.18489634  0.77362167    -0.07900
C691        C  0.88061910  0.15467912  0.82645652     0.62500
H692        H  0.85088391  0.25353656  0.79063321     0.13200
H693        H  0.99593718  0.17534039  0.66060827     0.13200
C694        C  0.99043301  0.28061768  0.64136205     0.62700
F695        F  0.84347587  0.18649559  0.85894250    -0.22500
F696        F  0.92455948  0.14121241  0.85963396    -0.19800
F697        F  0.85221277  0.10721763  0.81176819    -0.19500
F698        F  0.04492404  0.26612731  0.65258897    -0.19500
F699        F  0.98824010  0.33671172  0.64779093    -0.19800
F700        F  0.98246027  0.26707074  0.58586346    -0.22500
loop_ 
_geom_bond_atom_site_label_1 
_geom_bond_atom_site_label_2 
_geom_bond_distance 
_geom_bond_site_symmetry_2 
_ccdc_geom_bond_type 
O1           Ni9   1.947   1_565  S
O1           C11   1.286       .  A
O2           Ni9   1.954   1_455  S
O2           C12   1.288       .  A
O3           Ni9   1.904   1_465  S
O3           C13   1.276       .  A
O4           Ni9   1.912       .  S
O4           C14   1.280       .  A
O5          Ni10   1.938   1_545  S
O5           C14   1.286       .  A
O6          Ni10   1.950   1_455  S
O6           C13   1.287       .  A
O7          Ni10   1.877   1_445  S
O7           C12   1.274       .  A
O8          Ni10   1.878       .  S
O8           C11   1.273       .  A
Ni9         Ni10   2.381   1_545  S
C11         C670   1.471       .  S
C12         C641   1.503       .  S
C13         C654   1.489       .  S
C14         C689   1.502       .  S
O15         Ni23   1.973       .  S
O15          C25   1.293       .  A
O16         Ni23   1.976   1_445  S
O16          C26   1.292       .  A
O17         Ni23   1.896   1_545  S
O17          C27   1.273       .  A
O18         Ni23   1.908   1_455  S
O18          C28   1.277       .  A
O19         Ni24   1.934   1_465  S
O19          C28   1.283       .  A
O20         Ni24   1.923       .  S
O20          C27   1.285       .  A
O21         Ni24   1.854   1_455  S
O21          C26   1.271       .  A
O22         Ni24   1.853   1_565  S
O22          C25   1.269       .  A
Ni23        Ni24   2.375   1_565  S
C25         C622   1.498       .  S
C26         C590   1.512       .  S
C27         C606   1.493       .  S
C28         C574   1.474       .  S
N29          C34   1.346   1_554  A
N29          C33   1.351       .  A
N29          H61   1.046       .  S
N30          C37   1.350       .  A
N30          C38   1.342       .  A
N31          C36   1.359   1_554  A
N31          C35   1.356       .  A
N31          H62   1.047       .  S
N32          C39   1.353       .  A
N32          C40   1.351       .  A
C33          C41   1.379       .  A
C33          C49   1.408       .  A
C34          C50   1.407       .  A
C34          C42   1.388       .  A
C35          C43   1.387       .  A
C35          C52   1.429       .  A
C36          C51   1.429       .  A
C36          C44   1.387       .  A
C37          C49   1.404       .  A
C37          C45   1.382       .  A
C38          C52   1.409       .  A
C38          C46   1.390       .  A
C39          C47   1.382       .  A
C39          C50   1.409       .  A
C40          C48   1.391       .  A
C40          C51   1.424       .  A
C41          C42   1.367   1_554  A
C41          H53   1.075       .  S
C42          H54   1.080       .  S
C43          C44   1.375   1_554  A
C43          H55   1.082       .  S
C44          H56   1.077       .  S
C45          C46   1.377       .  A
C45          H57   1.082       .  S
C46          H58   1.083       .  S
C47          C48   1.373       .  A
C47          H59   1.082       .  S
C48          H60   1.082       .  S
C49         C526   1.492       .  S
C50         C513   1.481       .  S
C51         C558   1.506       .  S
C52         C542   1.488       .  S
C63         C462   1.607       .  S
C63         C478   1.621       .  S
C63         C494   1.571       .  S
C63         C673   1.595       .  S
C64         C414   1.583       .  S
C64         C430   1.600       .  S
C64         C446   1.585       .  S
C64         C625   1.603       .  S
C65         C385   1.592       .  S
C65         C398   1.614       .  S
C65         C529   1.611       .  S
C65         C593   1.593       .  S
C66         C353   1.605       .  S
C66         C369   1.614       .  S
C66         C510   1.578       .  S
C66         C638   1.598       .  S
C67         C433   1.503       .  S
C67          C68   1.437   1_554  A
C67          C72   1.411       .  A
C68         C481   1.535       .  S
C68          C69   1.425   1_565  A
C69          C70   1.421       .  A
C69          H74   1.084       .  S
C70         C366   1.509       .  S
C70          C71   1.421   1_556  A
C71         C401   1.505       .  S
C71          C72   1.400   1_545  A
C72          H73   1.085       .  S
N75          C80   1.347   1_556  A
N75          C79   1.349       .  A
N75         H107   1.035   1_556  S
N76          C83   1.352       .  A
N76          C84   1.343       .  A
N77          C82   1.357       .  A
N77          C81   1.354   1_554  A
N77         H108   1.028       .  S
N78          C85   1.348       .  A
N78          C86   1.346       .  A
C79          C87   1.383       .  A
C79          C95   1.407       .  A
C80          C96   1.405       .  A
C80          C88   1.387       .  A
C81          C89   1.390       .  A
C81          C98   1.421       .  A
C82          C97   1.416       .  A
C82          C90   1.384       .  A
C83          C95   1.408       .  A
C83          C91   1.383       .  A
C84          C98   1.413       .  A
C84          C92   1.390       .  A
C85          C93   1.385       .  A
C85          C96   1.404       .  A
C86          C94   1.388       .  A
C86          C97   1.407       .  A
C87          C88   1.370   1_556  A
C87          H99   1.076       .  S
C88         H100   1.079       .  S
C89          C90   1.380   1_556  A
C89         H101   1.082       .  S
C90         H102   1.082       .  S
C91          C92   1.377       .  A
C91         H103   1.082       .  S
C92         H104   1.082       .  S
C93          C94   1.372       .  A
C93         H105   1.082       .  S
C94         H106   1.082       .  S
C95         C497   1.492       .  S
C96         C449   1.472       .  S
C97         C321   1.488       .  S
C98         C334   1.478       .  S
N109        C114   1.350       .  A
N109        C113   1.351       .  A
N109        H141   1.043       .  S
N110        C117   1.343       .  A
N110        C118   1.343       .  A
N111        C116   1.352       .  A
N111        C115   1.357       .  A
N111        H142   1.042       .  S
N112        C119   1.353       .  A
N112        C120   1.350       .  A
C113        C121   1.385       .  A
C113        C129   1.411       .  A
C114        C130   1.412       .  A
C114        C122   1.388       .  A
C115        C123   1.393       .  A
C115        C132   1.433       .  A
C116        C131   1.408       .  A
C116        C124   1.379       .  A
C117        C129   1.402       .  A
C117        C125   1.383       .  A
C118        C132   1.412       .  A
C118        C126   1.389       .  A
C119        C127   1.381       .  A
C119        C130   1.409       .  A
C120        C128   1.386       .  A
C120        C131   1.418       .  A
C121        C122   1.354       .  A
C121        H133   1.079       .  S
C122        H134   1.074       .  S
C123        C124   1.381       .  A
C123        H135   1.080       .  S
C124        H136   1.082       .  S
C125        C126   1.386       .  A
C125        H137   1.082       .  S
C126        H138   1.082       .  S
C127        C128   1.362       .  A
C127        H139   1.081       .  S
C128        H140   1.068       .  S
C129        C286   1.485       .  S
C130        C302   1.485       .  S
C131        C465   1.502       .  S
C132        C417   1.519       .  S
C143        C270   1.598       .  S
C143        C305   1.599       .  S
C143        C561   1.616       .  S
C143        C657   1.582       .  S
C144        C257   1.617       .  S
C144        C289   1.587       .  S
C144        C545   1.580       .  S
C144        C577   1.588       .  S
C145        C222   1.622       .  S
C145        C238   1.624       .  S
C145        C318   1.590       .  S
C145        C609   1.582       .  S
C146        C190   1.586       .  S
C146        C206   1.606       .  S
C146        C337   1.596       .  S
C146        C686   1.602       .  S
C147        C254   1.516       .  S
C147        C148   1.438       .  A
C147        C152   1.414       .  A
C148        C273   1.520       .  S
C148        C149   1.411       .  A
C149        C150   1.409   1_455  A
C149        H154   1.078       .  S
C150        C193   1.523       .  S
C150        C151   1.426       .  A
C151        C225   1.497       .  S
C151        C152   1.415   1_655  A
C152        H153   1.085       .  S
N155        C160   1.348       .  A
N155        C159   1.344       .  A
N155        H187   1.041       .  S
N156        C163   1.352       .  A
N156        C164   1.348       .  A
N157        C162   1.358       .  A
N157        C161   1.359       .  A
N157        H188   1.041       .  S
N158        C165   1.354       .  A
N158        C166   1.347       .  A
C159        C167   1.384       .  A
C159        C175   1.400       .  A
C160        C176   1.409       .  A
C160        C168   1.389       .  A
C161        C169   1.387       .  A
C161        C178   1.426       .  A
C162        C177   1.427       .  A
C162        C170   1.388       .  A
C163        C175   1.409       .  A
C163        C171   1.382       .  A
C164        C178   1.417       .  A
C164        C172   1.391       .  A
C165        C173   1.383       .  A
C165        C176   1.414       .  A
C166        C174   1.389       .  A
C166        C177   1.419       .  A
C167        C168   1.371       .  A
C167        H179   1.083       .  S
C168        H180   1.079       .  S
C169        C170   1.384       .  A
C169        H181   1.082       .  S
C170        H182   1.082       .  S
C171        C172   1.377       .  A
C171        H183   1.082       .  S
C172        H184   1.081       .  S
C173        C174   1.381       .  A
C173        H185   1.082       .  S
C174        H186   1.082       .  S
C175        C241   1.485       .  S
C176        C209   1.492       .  S
C177        C350   1.504       .  S
C178        C382   1.497       .  S
C189        C190   1.420       .  A
C189        C194   1.402       .  A
C189        H196   1.075       .  S
C190        C191   1.445       .  A
C191        C192   1.424       .  A
C191        C198   1.530       .  S
C192        C193   1.408       .  A
C192        H197   1.067       .  S
C193        C194   1.417       .  A
C194        C195   1.522       .  S
C195        F199   1.384       .  S
C195        F200   1.383       .  S
C195        F201   1.384       .  S
C198        F202   1.375       .  S
C198        F203   1.384       .  S
C198        F204   1.377       .  S
C205        C206   1.426       .  A
C205        C210   1.402       .  A
C205        H212   1.072       .  S
C206        C207   1.458       .  A
C207        C208   1.416       .  A
C207        C214   1.528       .  S
C208        C209   1.392       .  A
C208        H213   1.084       .  S
C209        C210   1.401       .  A
C210        C211   1.513       .  S
C211        F215   1.383       .  S
C211        F216   1.382       .  S
C211        F217   1.383       .  S
C214        F218   1.372       .  S
C214        F219   1.386       .  S
C214        F220   1.381       .  S
C221        C222   1.435       .  A
C221        C226   1.414       .  A
C221        H228   1.082       .  S
C222        C223   1.472       .  A
C223        C224   1.417       .  A
C223        C230   1.542       .  S
C224        C225   1.389       .  A
C224        H229   1.082   1_655  S
C225        C226   1.403       .  A
C226        C227   1.517       .  S
C227        F231   1.382       .  S
C227        F232   1.383       .  S
C227        F233   1.384       .  S
C230        F234   1.376   1_655  S
C230        F235   1.378       .  S
C230        F236   1.386   1_655  S
C237        C238   1.424       .  A
C237        C242   1.398       .  A
C237        H244   1.068       .  S
C238        C239   1.468       .  A
C239        C240   1.409       .  A
C239        C246   1.525       .  S
C240        C241   1.383       .  A
C240        H245   1.086       .  S
C241        C242   1.406       .  A
C242        C243   1.520       .  S
C243        F247   1.384       .  S
C243        F248   1.381       .  S
C243        F249   1.383       .  S
C246        F250   1.359       .  S
C246        F251   1.387       .  S
C246        F252   1.382       .  S
C253        C254   1.406       .  A
C253        C258   1.427       .  A
C253        H260   1.085   1_455  S
C254        C255   1.408       .  A
C255        C256   1.416       .  A
C255        C262   1.518       .  S
C256        C257   1.428       .  A
C256        H261   1.072       .  S
C257        C258   1.452       .  A
C258        C259   1.531       .  S
C259        F263   1.386       .  S
C259        F264   1.382   1_455  S
C259        F265   1.371       .  S
C262        F266   1.384       .  S
C262        F267   1.381       .  S
C262        F268   1.384       .  S
C269        C270   1.417       .  A
C269        C274   1.410       .  A
C269        H276   1.077       .  S
C270        C271   1.459       .  A
C271        C272   1.415       .  A
C271        C278   1.529       .  S
C272        C273   1.393       .  A
C272        H277   1.077       .  S
C273        C274   1.425       .  A
C274        C275   1.520       .  S
C275        F279   1.385       .  S
C275        F280   1.383       .  S
C275        F281   1.383       .  S
C278        F282   1.376       .  S
C278        F283   1.380       .  S
C278        F284   1.387       .  S
C285        C286   1.402       .  A
C285        C290   1.418       .  A
C285        H292   1.085       .  S
C286        C287   1.402       .  A
C287        C288   1.395       .  A
C287        C294   1.515       .  S
C288        C289   1.420       .  A
C288        H293   1.072       .  S
C289        C290   1.450       .  A
C290        C291   1.533       .  S
C291        F295   1.385       .  S
C291        F296   1.383       .  S
C291        F297   1.372       .  S
C294        F298   1.384       .  S
C294        F299   1.383       .  S
C294        F300   1.383       .  S
C301        C302   1.397       .  A
C301        C306   1.402       .  A
C301        H308   1.084       .  S
C302        C303   1.404       .  A
C303        C304   1.395       .  A
C303        C310   1.520       .  S
C304        C305   1.430       .  A
C304        H309   1.078       .  S
C305        C306   1.445       .  A
C306        C307   1.518       .  S
C307        F311   1.382       .  S
C307        F312   1.384       .  S
C307        F313   1.366       .  S
C310        F314   1.384       .  S
C310        F315   1.383       .  S
C310        F316   1.383       .  S
C317        C318   1.428       .  A
C317        C322   1.400       .  A
C317        H324   1.068       .  S
C318        C319   1.454       .  A
C319        C320   1.415       .  A
C319        C326   1.530       .  S
C320        C321   1.395       .  A
C320        H325   1.084       .  S
C321        C322   1.400       .  A
C322        C323   1.522       .  S
C323        F327   1.382       .  S
C323        F328   1.385       .  S
C323        F329   1.382       .  S
C326        F330   1.370       .  S
C326        F331   1.381       .  S
C326        F332   1.383   1_655  S
C333        C334   1.392       .  A
C333        C338   1.409       .  A
C333        H340   1.084       .  S
C334        C335   1.403       .  A
C335        C336   1.398       .  A
C335        C342   1.520       .  S
C336        C337   1.428       .  A
C336        H341   1.079       .  S
C337        C338   1.454       .  A
C338        C339   1.533       .  S
C339        F343   1.374       .  S
C339        F344   1.376       .  S
C339        F345   1.387       .  S
C342        F346   1.383       .  S
C342        F347   1.382       .  S
C342        F348   1.383       .  S
C349        C350   1.396       .  A
C349        C354   1.420       .  A
C349        H356   1.083       .  S
C350        C351   1.408       .  A
C351        C352   1.402       .  A
C351        C358   1.521       .  S
C352        C353   1.424       .  A
C352        H357   1.073       .  S
C353        C354   1.463       .  A
C354        C355   1.538       .  S
C355        F359   1.380       .  S
C355        F360   1.371       .  S
C355        F361   1.386       .  S
C358        F362   1.382       .  S
C358        F363   1.383       .  S
C358        F364   1.384       .  S
C365        C366   1.397       .  A
C365        C370   1.422       .  A
C365        H372   1.084       .  S
C366        C367   1.413       .  A
C367        C368   1.406       .  A
C367        C374   1.519   1_545  S
C368        C369   1.429       .  A
C368        H373   1.083       .  S
C369        C370   1.463       .  A
C370        C371   1.529       .  S
C371        F375   1.380   1_556  S
C371        F376   1.361       .  S
C371        F377   1.380       .  S
C374        F378   1.382       .  S
C374        F379   1.380       .  S
C374        F380   1.385       .  S
C381        C382   1.399       .  A
C381        C386   1.421       .  A
C381        H388   1.083       .  S
C382        C383   1.408       .  A
C383        C384   1.401       .  A
C383        C390   1.523       .  S
C384        C385   1.425       .  A
C384        H389   1.076       .  S
C385        C386   1.452       .  A
C386        C387   1.533       .  S
C387        F391   1.381       .  S
C387        F392   1.374       .  S
C387        F393   1.384       .  S
C390        F394   1.384       .  S
C390        F395   1.381       .  S
C390        F396   1.384       .  S
C397        C398   1.430       .  A
C397        C402   1.412       .  A
C397        H404   1.071       .  S
C398        C399   1.451       .  A
C399        C400   1.422       .  A
C399        C406   1.537       .  S
C400        C401   1.404       .  A
C400        H405   1.082       .  S
C401        C402   1.406       .  A
C402        C403   1.520   1_545  S
C403        F407   1.380       .  S
C403        F408   1.385       .  S
C403        F409   1.382       .  S
C406        F410   1.379       .  S
C406        F411   1.375       .  S
C406        F412   1.385       .  S
C413        C414   1.425       .  A
C413        C418   1.409       .  A
C413        H420   1.079       .  S
C414        C415   1.443       .  A
C415        C416   1.406       .  A
C415        C422   1.534       .  S
C416        C417   1.405       .  A
C416        H421   1.080       .  S
C417        C418   1.428       .  A
C418        C419   1.530       .  S
C419        F423   1.378       .  S
C419        F424   1.382       .  S
C419        F425   1.379       .  S
C422        F426   1.385       .  S
C422        F427   1.372       .  S
C422        F428   1.380       .  S
C429        C430   1.423       .  A
C429        C434   1.402       .  A
C429        H436   1.083       .  S
C430        C431   1.462       .  A
C431        C432   1.420       .  A
C431        C438   1.527       .  S
C432        C433   1.392       .  A
C432        H437   1.085       .  S
C433        C434   1.419       .  A
C434        C435   1.525   1_565  S
C435        F439   1.384       .  S
C435        F440   1.383       .  S
C435        F441   1.381       .  S
C438        F442   1.380       .  S
C438        F443   1.362       .  S
C438        F444   1.386   1_554  S
C445        C446   1.427       .  A
C445        C450   1.395       .  A
C445        H452   1.068       .  S
C446        C447   1.452       .  A
C447        C448   1.408       .  A
C447        C454   1.516       .  S
C448        C449   1.391       .  A
C448        H453   1.083       .  S
C449        C450   1.397       .  A
C450        C451   1.517       .  S
C451        F455   1.383       .  S
C451        F456   1.382       .  S
C451        F457   1.382       .  S
C454        F458   1.372       .  S
C454        F459   1.379       .  S
C454        F460   1.386       .  S
C461        C462   1.427       .  A
C461        C466   1.408       .  A
C461        H468   1.056       .  S
C462        C463   1.460       .  A
C463        C464   1.414       .  A
C463        C470   1.531       .  S
C464        C465   1.394       .  A
C464        H469   1.084       .  S
C465        C466   1.408       .  A
C466        C467   1.524       .  S
C467        F471   1.385       .  S
C467        F472   1.383       .  S
C467        F473   1.382       .  S
C470        F474   1.379       .  S
C470        F475   1.378       .  S
C470        F476   1.386       .  S
C477        C478   1.426       .  A
C477        C482   1.425       .  A
C477        H484   1.076       .  S
C478        C479   1.442       .  A
C479        C480   1.420       .  A
C479        C486   1.520       .  S
C480        C481   1.408       .  A
C480        H485   1.083       .  S
C481        C482   1.424       .  A
C482        C483   1.513       .  S
C483        F487   1.379       .  S
C483        F488   1.376   1_565  S
C483        F489   1.384   1_565  S
C486        F490   1.365       .  S
C486        F491   1.380       .  S
C486        F492   1.384       .  S
C493        C494   1.420       .  A
C493        C498   1.405       .  A
C493        H500   1.078       .  S
C494        C495   1.457       .  A
C495        C496   1.411       .  A
C495        C502   1.532       .  S
C496        C497   1.391       .  A
C496        H501   1.085       .  S
C497        C498   1.407       .  A
C498        C499   1.518       .  S
C499        F503   1.384       .  S
C499        F504   1.379       .  S
C499        F505   1.383       .  S
C502        F506   1.384       .  S
C502        F507   1.373       .  S
C502        F508   1.384       .  S
C509        C510   1.434       .  A
C509        C514   1.399       .  A
C509        H516   1.068       .  S
C510        C511   1.446       .  A
C511        C512   1.415       .  A
C511        C518   1.532       .  S
C512        C513   1.401       .  A
C512        H517   1.083       .  S
C513        C514   1.397       .  A
C514        C515   1.527       .  S
C515        F519   1.381       .  S
C515        F520   1.385       .  S
C515        F521   1.382       .  S
C518        F522   1.379       .  S
C518        F523   1.375       .  S
C518        F524   1.385       .  S
C525        C526   1.391       .  A
C525        C530   1.415       .  A
C525        H532   1.084       .  S
C526        C527   1.402       .  A
C527        C528   1.404       .  A
C527        C534   1.523       .  S
C528        C529   1.427       .  A
C528        H533   1.065       .  S
C529        C530   1.461       .  A
C530        C531   1.531       .  S
C531        F535   1.386       .  S
C531        F536   1.373       .  S
C531        F537   1.381       .  S
C534        F538   1.383       .  S
C534        F539   1.381       .  S
C534        F540   1.384       .  S
C541        C542   1.388       .  A
C541        C546   1.409       .  A
C541        H548   1.082       .  S
C542        C543   1.406       .  A
C543        C544   1.402       .  A
C543        C550   1.520       .  S
C544        C545   1.425       .  A
C544        H549   1.073       .  S
C545        C546   1.457       .  A
C546        C547   1.532       .  S
C547        F551   1.386       .  S
C547        F552   1.371       .  S
C547        F553   1.380       .  S
C550        F554   1.385       .  S
C550        F555   1.381       .  S
C550        F556   1.384       .  S
C557        C558   1.402       .  A
C557        C562   1.421       .  A
C557        H564   1.083       .  S
C558        C559   1.408       .  A
C559        C560   1.396       .  A
C559        C566   1.523       .  S
C560        C561   1.431       .  A
C560        H565   1.070       .  S
C561        C562   1.459       .  A
C562        C563   1.534       .  S
C563        F567   1.386       .  S
C563        F568   1.379       .  S
C563        F569   1.374       .  S
C566        F570   1.383       .  S
C566        F571   1.382       .  S
C566        F572   1.385       .  S
C573        C574   1.400       .  A
C573        C578   1.424       .  A
C573        H580   1.082   1_455  S
C574        C575   1.397       .  A
C575        C576   1.389       .  A
C575        C582   1.516       .  S
C576        C577   1.425       .  A
C576        H581   1.071       .  S
C577        C578   1.447       .  A
C578        C579   1.523       .  S
C579        F583   1.381   1_455  S
C579        F584   1.376       .  S
C579        F585   1.381       .  S
C582        F586   1.376       .  S
C582        F587   1.382       .  S
C582        F588   1.385       .  S
C589        C590   1.404       .  A
C589        C594   1.392       .  A
C589        H596   1.083       .  S
C590        C591   1.414       .  A
C591        C592   1.425       .  A
C591        C598   1.518       .  S
C592        C593   1.436       .  A
C592        H597   1.075       .  S
C593        C594   1.442       .  A
C594        C595   1.529       .  S
C595        F599   1.385       .  S
C595        F600   1.359       .  S
C595        F601   1.382       .  S
C598        F602   1.383       .  S
C598        F603   1.385       .  S
C598        F604   1.381   1_545  S
C605        C606   1.399       .  A
C605        C610   1.417       .  A
C605        H612   1.080       .  S
C606        C607   1.414       .  A
C607        C608   1.398       .  A
C607        C614   1.528       .  S
C608        C609   1.422       .  A
C608        H613   1.081       .  S
C609        C610   1.465       .  A
C610        C611   1.550       .  S
C611        F615   1.371       .  S
C611        F616   1.373       .  S
C611        F617   1.386       .  S
C614        F618   1.384       .  S
C614        F619   1.380       .  S
C614        F620   1.385       .  S
C621        C622   1.406       .  A
C621        C626   1.395       .  A
C621        H628   1.081       .  S
C622        C623   1.415       .  A
C623        C624   1.420       .  A
C623        C630   1.512       .  S
C624        C625   1.426       .  A
C624        H629   1.077       .  S
C625        C626   1.430       .  A
C626        C627   1.516       .  S
C627        F631   1.377       .  S
C627        F632   1.365       .  S
C627        F633   1.386       .  S
C630        F634   1.380   1_565  S
C630        F635   1.382       .  S
C630        F636   1.385       .  S
C637        C638   1.420       .  A
C637        C642   1.409       .  A
C637        H644   1.075       .  S
C638        C639   1.445       .  A
C639        C640   1.406       .  A
C639        C646   1.534       .  S
C640        C641   1.409       .  A
C640        H645   1.079       .  S
C641        C642   1.415       .  A
C642        C643   1.519       .  S
C643        F647   1.382       .  S
C643        F648   1.374       .  S
C643        F649   1.385       .  S
C646        F650   1.366       .  S
C646        F651   1.378       .  S
C646        F652   1.386       .  S
C653        C654   1.404       .  A
C653        C658   1.428       .  A
C653        H660   1.083   1_455  S
C654        C655   1.407       .  A
C655        C656   1.391       .  A
C655        C662   1.518       .  S
C656        C657   1.412       .  A
C656        H661   1.060       .  S
C657        C658   1.449       .  A
C658        C659   1.530       .  S
C659        F663   1.380   1_455  S
C659        F664   1.385   1_455  S
C659        F665   1.378       .  S
C662        F666   1.379       .  S
C662        F667   1.380       .  S
C662        F668   1.385       .  S
C669        C670   1.394       .  A
C669        C674   1.396       .  A
C669        H676   1.087       .  S
C670        C671   1.409       .  A
C671        C672   1.415       .  A
C671        C678   1.504   1_565  S
C672        C673   1.413       .  A
C672        H677   1.081       .  S
C673        C674   1.439       .  A
C674        C675   1.528       .  S
C675        F679   1.382       .  S
C675        F680   1.373       .  S
C675        F681   1.386       .  S
C678        F682   1.381       .  S
C678        F683   1.383       .  S
C678        F684   1.384       .  S
C685        C686   1.431       .  A
C685        C690   1.408       .  A
C685        H692   1.075       .  S
C686        C687   1.447       .  A
C687        C688   1.415       .  A
C687        C694   1.529       .  S
C688        C689   1.406       .  A
C688        H693   1.085       .  S
C689        C690   1.413       .  A
C690        C691   1.522       .  S
C691        F695   1.385       .  S
C691        F696   1.383       .  S
C691        F697   1.382       .  S
C694        F698   1.386   1_655  S
C694        F699   1.369       .  S
C694        F700   1.382       .  S
