geometry optimzed in LAMMPS
_audit_creation_date              2020-12-01 
_audit_creation_method            'lammps2cif' 
_symmetry_space_group_name_H-M    'P1' 
_symmetry_Int_Tables_number       1 
_symmetry_cell_setting            triclinic 
loop_ 
_symmetry_equiv_pos_as_xyz 
  x,y,z 
_cell_length_a                    40.05094568 
_cell_length_b                    40.26747948622033 
_cell_length_c                    40.47424517204815 
_cell_angle_alpha                 89.79784038577435 
_cell_angle_beta                  89.87813017054954 
_cell_angle_gamma                 89.96161568264586 
loop_ 
_atom_site_label 
_atom_site_type_symbol 
_atom_site_fract_x 
_atom_site_fract_y 
_atom_site_fract_z 
_atom_site_charge 
C1          C  0.05765025  0.05628445  0.05917823    -0.03300
C2          C  0.37948088  0.05614470  0.37924755    -0.03300
C3          C  0.38121915  0.38205901  0.05703852    -0.03300
C4          C  0.05598153  0.37794238  0.38071405    -0.03300
C5          C  0.47048411  0.47003597  0.46809476    -0.03300
C6          C  0.32914224  0.33095662  0.28325669     0.79500
N7          N  0.36178882  0.32209031  0.27640894    -0.78800
C8          C  0.38533138  0.34617070  0.27153335     0.81900
N9          N  0.37605888  0.37773307  0.27244229    -0.78800
C10         C  0.34429161  0.38665826  0.27052856     0.82000
N11         N  0.32018629  0.36318493  0.27538313    -0.80500
C12         C  0.28627964  0.33279509  0.33119354     0.79500
N13         N  0.27729037  0.32315626  0.36273137    -0.78800
C14         C  0.27438085  0.34673745  0.38679422     0.81900
N15         N  0.27909297  0.37852964  0.37890731    -0.78800
C16         C  0.27743412  0.38866352  0.34770425     0.82000
N17         N  0.28149013  0.36581057  0.32335476    -0.80500
C18         C  0.15056799  0.33301691  0.10614449     0.79500
N19         N  0.15836650  0.32432678  0.07411168    -0.78800
C20         C  0.16347677  0.34851250  0.05102359     0.81900
N21         N  0.16152135  0.38010382  0.06008784    -0.78800
C22         C  0.16231802  0.38906665  0.09162704     0.82000
N23         N  0.15710762  0.36543318  0.11523188    -0.80500
C24         C  0.33034509  0.15331544  0.10553887     0.79500
N25         N  0.36305273  0.15969775  0.11431691    -0.78800
C26         C  0.38677624  0.16375986  0.09034424     0.81900
N27         N  0.37765895  0.16172977  0.05895257    -0.78800
C28         C  0.34596135  0.16517958  0.05011785     0.82000
N29         N  0.32151343  0.16146457  0.07352149    -0.80500
O30         O  0.17919226  0.37283820  0.44019231    -0.75200
O31         O  0.25741148  0.37491416  0.49574071    -0.75200
O32         O  0.24613828  0.37100108  0.43068229    -0.75300
O33         O  0.19020052  0.37213077  0.00566777    -0.75300
O34         O  0.19010548  0.31677979  0.00790967    -0.75300
O35         O  0.24732506  0.31563990  0.43053402    -0.75200
O36         O  0.25642780  0.31957307  0.49672195    -0.75200
O37         O  0.18125167  0.31749057  0.44136197    -0.75300
Ni38       Ni  0.21819608  0.37461655  0.46795138     1.25400
Ni39       Ni  0.21886442  0.31524645  0.46910688     1.25400
C40         C  0.16713058  0.34470309  0.43226257     0.87000
C41         C  0.27018895  0.34729546  0.50463249     0.86900
C42         C  0.25574043  0.34343262  0.41784353     0.86900
C43         C  0.18117893  0.34480120  0.01955460     0.87100
O44         O  0.31620813  0.24830596  0.42901824    -0.75200
O45         O  0.31544493  0.19186356  0.00613571    -0.75200
O46         O  0.31897971  0.25766225  0.49513657    -0.75300
O47         O  0.31890213  0.18219796  0.43985702    -0.75300
O48         O  0.37452249  0.18051542  0.44000527    -0.75300
O49         O  0.37462425  0.25854823  0.49535612    -0.75200
O50         O  0.37111364  0.19205653  0.00536173    -0.75200
O51         O  0.37186892  0.24765988  0.42994033    -0.75300
Ni52       Ni  0.31532435  0.22002375  0.46742729     1.25400
Ni53       Ni  0.37502307  0.21962040  0.46759048     1.25400
C54         C  0.34414103  0.25714984  0.41680930     0.87000
C55         C  0.34322970  0.18307440  0.01859650     0.86900
C56         C  0.34675575  0.27117009  0.50389766     0.86900
C57         C  0.34658303  0.16800823  0.43168212     0.87100
C58         C  0.35876361  0.35919790  0.03339794     0.79500
N59         N  0.32642471  0.36832299  0.02537543    -0.78800
C60         C  0.30274847  0.34428076  0.02096079     0.81900
N61         N  0.31191353  0.31248085  0.52282688    -0.78800
C62         C  0.34347021  0.30346679  0.02124767     0.82000
N63         N  0.36775457  0.32678890  0.02625381    -0.80500
C64         C  0.33079292  0.28743025  0.33039490     0.79500
N65         N  0.32232932  0.27996691  0.36267453    -0.78800
C66         C  0.34698123  0.27558174  0.38555671     0.81900
N67         N  0.37855387  0.27832323  0.37602902    -0.78800
C68         C  0.38698561  0.27523706  0.34442370     0.82000
N69         N  0.36296389  0.27949185  0.32086345    -0.80500
C70         C  0.10854392  0.32972098  0.15399425     0.79500
N71         N  0.07596168  0.32079384  0.16083593    -0.78800
C72         C  0.05243153  0.34501896  0.16488989     0.81900
N73         N  0.06166370  0.37656525  0.16250738    -0.78800
C74         C  0.09337380  0.38538165  0.16583176     0.82000
N75         N  0.11759470  0.36173215  0.16232988    -0.80500
O76         O  0.44184784  0.37341896  0.18044583    -0.75200
O77         O  0.49819351  0.37129692  0.25781877    -0.75200
O78         O  0.00728671  0.36956846  0.19160346    -0.75300
O79         O  0.43217621  0.36992405  0.24695465    -0.75300
O80         O  0.43016884  0.31458667  0.24691574    -0.75300
O81         O  0.00750455  0.31421166  0.19056992    -0.75200
O82         O  0.49730667  0.31596601  0.25594553    -0.75200
O83         O  0.44097067  0.31808374  0.18150680    -0.75300
Ni84       Ni  0.46999115  0.37301053  0.21923586     1.25400
Ni85       Ni  0.46905217  0.31365159  0.21872624     1.25400
C86         C  0.43288963  0.34587185  0.16782468     0.87000
C87         C  0.50656468  0.34317186  0.26975253     0.86900
C88         C  0.02041033  0.34194009  0.18231035     0.86900
C89         C  0.41797975  0.34251242  0.25543854     0.87100
O90         O  0.43022442  0.24678433  0.31344918    -0.75200
O91         O  0.00601264  0.18747577  0.31458998    -0.75200
O92         O  0.43844729  0.18065165  0.31586289    -0.75300
O93         O  0.49757681  0.25317689  0.31720385    -0.75300
O94         O  0.49718937  0.25407665  0.37227775    -0.75300
O95         O  0.43683330  0.17948782  0.37094312    -0.75200
O96         O  0.00320982  0.18712515  0.36961994    -0.75200
O97         O  0.43096837  0.24644461  0.36851514    -0.75300
Ni98       Ni  0.46809184  0.21694902  0.31330759     1.25400
Ni99       Ni  0.46700772  0.21669550  0.37236574     1.25400
C100        C  0.41804370  0.25609514  0.34105086     0.87000
C101        C  0.01751155  0.17834396  0.34255297     0.86900
C102        C  0.42826962  0.16755581  0.34309599     0.86900
C103        C  0.50658951  0.26632218  0.34469458     0.87100
C104        C  0.03566381  0.35382110  0.35685540     0.79500
N105        N  0.02876440  0.32130745  0.36549470    -0.78800
C106        C  0.02406642  0.29821297  0.34134361     0.81900
N107        N  0.52624377  0.30750076  0.31007637    -0.78800
C108        C  0.02344713  0.33950713  0.30138406     0.82000
N109        N  0.02784858  0.36323601  0.32495532    -0.80500
C110        C  0.10583426  0.14932169  0.33164041     0.79500
N111        N  0.11484766  0.15713145  0.36371043    -0.78800
C112        C  0.09064776  0.16238648  0.38705873     0.81900
N113        N  0.05886351  0.16069063  0.37813548    -0.78800
C114        C  0.04969351  0.16139957  0.34666241     0.82000
N115        N  0.07324674  0.15617430  0.32282488    -0.80500
C116        C  0.32899176  0.10901019  0.15250945     0.79500
N117        N  0.36162616  0.11761934  0.15923662    -0.78800
C118        C  0.38497884  0.09324855  0.16333080     0.81900
N119        N  0.37553771  0.06178582  0.16109547    -0.78800
C120        C  0.34372682  0.05317366  0.16427426     0.82000
N121        N  0.31968464  0.07704026  0.16094041    -0.80500
O122        O  0.37129291  0.44184735  0.17941029    -0.75200
O123        O  0.37019197  0.49865850  0.25592748    -0.75200
O124        O  0.36819199  0.43298043  0.24556368    -0.75300
O125        O  0.36813718  0.00742355  0.18982371    -0.75300
O126        O  0.31247165  0.00842408  0.18944978    -0.75300
O127        O  0.31254662  0.43102612  0.24536969    -0.75200
O128        O  0.31453647  0.49780423  0.25476361    -0.75200
O129        O  0.31562852  0.44182775  0.18006874    -0.75300
Ni130      Ni  0.37133650  0.47037113  0.21760355     1.25400
Ni131      Ni  0.31163287  0.46986028  0.21735385     1.25400
C132        C  0.34354916  0.43254283  0.16720424     0.87000
C133        C  0.34212091  0.50689026  0.26830184     0.86900
C134        C  0.34061636  0.41890154  0.25399110     0.86900
C135        C  0.34042177  0.02103838  0.18111942     0.87100
O136        O  0.18014857  0.43750473  0.37447962    -0.75200
O137        O  0.25507736  0.49836256  0.37355998    -0.75200
O138        O  0.18756984  0.00368957  0.37239843    -0.75300
O139        O  0.24808447  0.43222941  0.37196969    -0.75300
O140        O  0.24882506  0.43163927  0.31689638    -0.75300
O141        O  0.18602878  0.00429722  0.31733134    -0.75200
O142        O  0.25224482  0.49879336  0.31855685    -0.75200
O143        O  0.18213935  0.43718373  0.31944273    -0.75300
Ni144      Ni  0.21766008  0.46791113  0.37512537     1.25400
Ni145      Ni  0.21722696  0.46797937  0.31610884     1.25400
C146        C  0.16843303  0.42809014  0.34670847     0.87000
C147        C  0.26626921  0.50791464  0.34550622     0.86900
C148        C  0.17739672  0.01655010  0.34511576     0.86900
C149        C  0.25829003  0.41967271  0.34459478     0.87100
C150        C  0.35477718  0.03601042  0.35560774     0.79500
N151        N  0.36360435  0.02782080  0.32359969    -0.78800
C152        C  0.33924841  0.02337239  0.30038401     0.81900
N153        N  0.30701876  0.52629961  0.30935765    -0.78800
C154        C  0.29833228  0.02530527  0.34100275     0.82000
N155        N  0.32198293  0.03035215  0.36450772    -0.80500
C156        C  0.15091083  0.10419295  0.33161048     0.79500
N157        N  0.15954724  0.11368153  0.36316581    -0.78800
C158        C  0.16252924  0.09001170  0.38727976     0.81900
N159        N  0.15815189  0.05822736  0.37951110    -0.78800
C160        C  0.15949230  0.04819835  0.34834551     0.82000
N161        N  0.15583377  0.07120784  0.32395211    -0.80500
O162        O  0.12422509  0.24510065  0.00734835    -0.75200
O163        O  0.12247472  0.18797450  0.43089376    -0.75200
O164        O  0.11986210  0.25384031  0.44106708    -0.75300
O165        O  0.12080441  0.17907503  0.49753873    -0.75300
O166        O  0.06512749  0.17828974  0.49866686    -0.75300
O167        O  0.06420811  0.25512565  0.44194708    -0.75200
O168        O  0.06684875  0.18838703  0.43299687    -0.75200
O169        O  0.06858599  0.24474779  0.00731183    -0.75300
Ni170      Ni  0.12387376  0.21641869  0.46921465     1.25400
Ni171      Ni  0.06417739  0.21663293  0.47028727     1.25400
C172        C  0.09652087  0.25400338  0.02008835     0.87000
C173        C  0.09433322  0.17945254  0.41898312     0.86900
C174        C  0.09197551  0.26746142  0.43274893     0.86900
C175        C  0.09310238  0.16591016  0.50706918     0.87100
C176        C  0.07872114  0.35525177  0.40422037     0.79500
N177        N  0.11098097  0.36451320  0.41175053    -0.78800
C178        C  0.13496484  0.34075736  0.41564883     0.81900
N179        N  0.12640202  0.30905167  0.41344550    -0.78800
C180        C  0.09479099  0.29957169  0.41568027     0.82000
N181        N  0.07016359  0.32274645  0.41140340    -0.80500
O182        O  0.00746858  0.24833649  0.12114978    -0.75200
O183        O  0.43103620  0.19008524  0.12128157    -0.75200
O184        O  0.49830775  0.18227939  0.11924195    -0.75300
O185        O  0.44062927  0.25592246  0.11822082    -0.75300
O186        O  0.44119448  0.25773331  0.06318123    -0.75300
O187        O  0.49865171  0.18038549  0.06420306    -0.77000
O188        O  0.43238215  0.19059487  0.06621985    -0.75200
O189        O  0.00691938  0.24776609  0.06608569    -0.75300
Ni190      Ni  0.46940001  0.21912706  0.12194148     1.25400
Ni191      Ni  0.46986959  0.21898812  0.06290629     1.25400
C192        C  0.01998694  0.25725422  0.09352259     0.87000
C193        C  0.41877774  0.18135548  0.09360406     0.86900
C194        C  0.50742645  0.16842696  0.09210421     0.86900
C195        C  0.43227844  0.26996520  0.09087232     0.87100
C196        C  0.40331835  0.35832283  0.08015459     0.79500
N197        N  0.41115097  0.36715072  0.11228934    -0.78800
C198        C  0.41647039  0.34285959  0.13542300     0.81900
N199        N  0.41506451  0.31138918  0.12613765    -0.78800
C200        C  0.41586709  0.30242819  0.09469181     0.82000
N201        N  0.41042497  0.32599921  0.07099753    -0.80500
C202        C  0.10780364  0.28599408  0.10662952     0.79500
N203        N  0.11752031  0.27691871  0.07503560    -0.78800
C204        C  0.09360145  0.27281362  0.05117901     0.81900
N205        N  0.06172302  0.27693074  0.05928122    -0.78800
C206        C  0.05178673  0.27534900  0.09049961     0.82000
N207        N  0.07484500  0.27996454  0.11483808    -0.80500
O208        O  0.18039823  0.06272174  0.49694220    -0.75200
O209        O  0.25734668  0.06379820  0.43979628    -0.75200
O210        O  0.24771780  0.06609252  0.00513917    -0.75300
O211        O  0.19035583  0.06591559  0.43157223    -0.75300
O212        O  0.18932652  0.12129180  0.43046578    -0.75300
O213        O  0.24765651  0.12146489  0.00619659    -0.75200
O214        O  0.25536020  0.11917431  0.43980439    -0.75200
O215        O  0.18120477  0.11809819  0.49690829    -0.75300
Ni216      Ni  0.21892156  0.06257624  0.46834273     1.25400
Ni217      Ni  0.21832412  0.12198859  0.46835366     1.25400
C218        C  0.16787616  0.09038034  0.50580360     0.87000
C219        C  0.26934162  0.09179641  0.43114160     0.86900
C220        C  0.25707255  0.09365652  0.01812962     0.86900
C221        C  0.18084970  0.09340896  0.41832306     0.87100
C222        C  0.35742622  0.07930836  0.40310476     0.79500
N223        N  0.36701944  0.11143614  0.41097082    -0.78800
C224        C  0.34307900  0.13537301  0.41558912     0.81900
N225        N  0.31122562  0.12681868  0.41356069    -0.78800
C226        C  0.30163089  0.09538874  0.41473276     0.82000
N227        N  0.32476770  0.07108470  0.41007895    -0.80500
O228        O  0.25638609  0.43938520  0.06531645    -0.75200
O229        O  0.18179644  0.50061997  0.06678841    -0.75200
O230        O  0.24925901  0.00538469  0.06713174    -0.75300
O231        O  0.18885934  0.43460917  0.06849325    -0.75300
O232        O  0.18958186  0.43239394  0.12350996    -0.75300
O233        O  0.25053316  0.00697356  0.12216953    -0.75200
O234        O  0.18412951  0.49981820  0.12182253    -0.75200
O235        O  0.25591839  0.43997986  0.12037934    -0.75300
Ni236      Ni  0.21906162  0.47004000  0.06492961     1.25400
Ni237      Ni  0.22007322  0.46987641  0.12393131     1.25400
C238        C  0.26867569  0.43016207  0.09297284     0.87000
C239        C  0.17033458  0.50952376  0.09488270     0.86900
C240        C  0.25932995  0.01867747  0.09406766     0.86900
C241        C  0.17995700  0.42081226  0.09574093     0.87100
C242        C  0.35632539  0.40143126  0.08115104     0.79500
N243        N  0.36526199  0.40970635  0.11302641    -0.78800
C244        C  0.34090450  0.41339829  0.13645232     0.81900
N245        N  0.30920676  0.40914809  0.12779048    -0.78800
C246        C  0.29998037  0.41140939  0.09632487     0.82000
N247        N  0.32364422  0.40768547  0.07238809    -0.80500
C248        C  0.28779548  0.10609581  0.10418156     0.79500
N249        N  0.28011336  0.11476974  0.07206725    -0.78800
C250        C  0.27596782  0.09050676  0.04897740     0.81900
N251        N  0.27921348  0.05890223  0.05808153    -0.78800
C252        C  0.27758911  0.04995562  0.08969749     0.82000
N253        N  0.28160049  0.07363617  0.11321352    -0.80500
O254        O  0.06466157  0.43848897  0.25834329    -0.75200
O255        O  0.06524984  0.49642946  0.18203219    -0.75200
O256        O  0.06836770  0.43043077  0.19190312    -0.75300
O257        O  0.06656931  0.00421066  0.24872548    -0.75300
O258        O  0.12222820  0.00598742  0.24961088    -0.75300
O259        O  0.12403180  0.42966793  0.19218943    -0.75200
O260        O  0.12087485  0.49664549  0.18395820    -0.75200
O261        O  0.12032604  0.43916949  0.25762588    -0.75300
Ni262      Ni  0.06420828  0.46736208  0.22014927     1.25400
Ni263      Ni  0.12389706  0.46788336  0.22082624     1.25400
C264        C  0.09258509  0.42986738  0.27078896     0.87000
C265        C  0.09333035  0.50574402  0.17032610     0.86900
C266        C  0.09627477  0.41715220  0.18326811     0.86900
C267        C  0.09396380  0.01796846  0.25786890     0.87100
C268        C  0.08022121  0.39935777  0.35751691     0.79500
N269        N  0.07138055  0.40762350  0.32556684    -0.78800
C270        C  0.09576407  0.41200642  0.30231587     0.81900
N271        N  0.12751639  0.40912543  0.31131047    -0.78800
C272        C  0.13656044  0.41046275  0.34283459     0.82000
N273        N  0.11277122  0.40597464  0.36654789    -0.80500
O274        O  0.00614748  0.12343087  0.24656254    -0.75200
O275        O  0.42929709  0.12384746  0.18966442    -0.75200
O276        O  0.43874828  0.12056723  0.25526003    -0.75300
O277        O  0.49650464  0.12074642  0.18153380    -0.75300
O278        O  0.49638942  0.06537108  0.18030470    -0.75300
O279        O  0.43827664  0.06519117  0.25613785    -0.75200
O280        O  0.43023568  0.06847285  0.18971858    -0.75200
O281        O  0.00438200  0.06808821  0.24620740    -0.75300
Ni282      Ni  0.46765706  0.12412716  0.21837313     1.25400
Ni283      Ni  0.46733474  0.06472505  0.21818802     1.25400
C284        C  0.01831887  0.09545882  0.25504927     0.87000
C285        C  0.41689993  0.09616542  0.18076868     0.86900
C286        C  0.42938292  0.09290779  0.26839252     0.86900
C287        C  0.50554397  0.09315173  0.16824360     0.87100
C288        C  0.40028265  0.08031784  0.35536046     0.79500
N289        N  0.40654041  0.11281932  0.36383677    -0.78800
C290        C  0.40984105  0.13635810  0.33978483     0.81900
N291        N  0.40722603  0.12728383  0.30838703    -0.78800
C292        C  0.41104449  0.09571601  0.29968037     0.82000
N293        N  0.40799035  0.07150055  0.32328628    -0.80500
C294        C  0.10645176  0.10563589  0.28515193     0.79500
N295        N  0.07440441  0.11533890  0.27679319    -0.78800
C296        C  0.05033036  0.09165777  0.27224184     0.81900
N297        N  0.05860477  0.05985175  0.27487726    -0.78800
C298        C  0.09014026  0.05004181  0.27426564     0.82000
N299        N  0.11454040  0.07294785  0.27902032    -0.80500
C300        C  0.03544199  0.08040923  0.08159471     0.79500
N301        N  0.02744975  0.07192422  0.11369478    -0.78800
C302        C  0.02326171  0.09638979  0.13661019     0.81900
N303        N  0.52649586  0.12766870  0.12764073    -0.78800
C304        C  0.02428274  0.13658432  0.09567610     0.82000
N305        N  0.02862124  0.11274076  0.07216095    -0.80500
C306        C  0.08240918  0.03765632  0.08395605     0.79500
N307        N  0.11529918  0.03211220  0.07559933    -0.78800
C308        C  0.13859299  0.02726081  0.09949073     0.81900
N309        N  0.12893735  0.52730948  0.13063353    -0.78800
C310        C  0.09699795  0.02442846  0.13937304     0.82000
N311        N  0.07302076  0.02912385  0.11578575    -0.80500
C312        C  0.08010120  0.07862520  0.03507174     0.79500
N313        N  0.11228414  0.06937157  0.02690775    -0.78800
C314        C  0.13630203  0.09334200  0.02394017     0.81900
N315        N  0.12758976  0.12487213  0.52761229    -0.78800
C316        C  0.09611931  0.13434582  0.02481054     0.82000
N317        N  0.07159570  0.11109143  0.02821457    -0.80500
C318        C  0.12998866  0.12816488  0.30788617    -0.03300
C319        C  0.30630522  0.13112767  0.12844718    -0.03300
C320        C  0.30623359  0.30857462  0.30709915    -0.03300
C321        C  0.13151947  0.30787278  0.13005258    -0.03300
C322        C  0.21834859  0.21801197  0.21970863    -0.03300
C323        C  0.14071396  0.25821329  0.16956703    -0.27100
C324        C  0.15541475  0.28455294  0.15160410    -0.15200
C325        C  0.19103871  0.28703285  0.15521511     0.35500
C326        C  0.20910901  0.26477164  0.17587468    -0.26500
C327        C  0.19424798  0.23974401  0.19576611    -0.15800
C328        C  0.15884295  0.23561071  0.18986607     0.36600
N329        N  0.14006637  0.20726154  0.20053632    -0.90000
H330        H  0.11408208  0.25427450  0.16711115     0.17700
H331        H  0.23582724  0.26815897  0.17730723     0.17700
N332        N  0.21053732  0.31229960  0.13952128    -0.89000
H333        H  0.13122613  0.21018773  0.22451696     0.35000
H334        H  0.15294614  0.18512227  0.19673042     0.40100
H335        H  0.20229685  0.33555650  0.14735515     0.39800
H336        H  0.20919531  0.30973638  0.11390776     0.34600
C337        C  0.28481273  0.25038180  0.28659457    -0.27100
C338        C  0.28136839  0.28545006  0.28640910    -0.15200
C339        C  0.25425536  0.29744831  0.26659479     0.35500
C340        C  0.23483082  0.27580643  0.24671997    -0.26500
C341        C  0.24007717  0.24097982  0.24447703    -0.15800
C342        C  0.26497835  0.22846099  0.26710099     0.36600
N343        N  0.27237671  0.19365878  0.27062111    -0.90000
H344        H  0.30381458  0.23901978  0.30181741     0.17700
H345        H  0.21417711  0.28713379  0.23385853     0.17700
N346        N  0.24393275  0.33144573  0.26680984    -0.89000
H347        H  0.29737094  0.19007484  0.26420889     0.35000
H348        H  0.25883183  0.17908346  0.25434896     0.40100
H349        H  0.26356279  0.34662248  0.25934093     0.39800
H350        H  0.23555546  0.33766778  0.29041209     0.34600
C351        C  0.22769982  0.17432658  0.17254330    -0.27100
C352        C  0.24228022  0.19747498  0.19449783    -0.15200
C353        C  0.27786081  0.20110842  0.19035531     0.35500
C354        C  0.29658039  0.17881886  0.16995573    -0.26500
C355        C  0.28200948  0.15409135  0.14992351    -0.15800
C356        C  0.24614809  0.15282728  0.15148977     0.36600
N357        N  0.22665534  0.12974543  0.13297301    -0.90000
H358        H  0.20089295  0.17178089  0.17245255     0.17700
H359        H  0.32344338  0.18163143  0.16888230     0.17700
N360        N  0.29546050  0.22838779  0.20498536    -0.89000
H361        H  0.23315812  0.10556072  0.13971336     0.35000
H362        H  0.22996780  0.13408003  0.10775677     0.40100
H363        H  0.28791247  0.25007535  0.19293244     0.39800
H364        H  0.32121479  0.22641729  0.20120257     0.34600
C365        C  0.15392065  0.18604994  0.28814074    -0.27100
C366        C  0.15432790  0.15082189  0.28580499    -0.15200
C367        C  0.17826643  0.13804303  0.26255614     0.35500
C368        C  0.19842807  0.15928867  0.24287720    -0.26500
C369        C  0.19662770  0.19440480  0.24371667    -0.15800
C370        C  0.17449676  0.20730174  0.26826595     0.36600
N371        N  0.17134122  0.24248556  0.27218729    -0.90000
H372        H  0.13715386  0.19791778  0.30541832     0.17700
H373        H  0.21628526  0.14716033  0.22704905     0.17700
N374        N  0.18374617  0.10333375  0.25770855    -0.89000
H375        H  0.17725336  0.24830998  0.29663234     0.35000
H376        H  0.14643429  0.24910036  0.26814781     0.40100
H377        H  0.16229416  0.09231148  0.24835608     0.39800
H378        H  0.19169632  0.09234618  0.27962222     0.34600
C379        C  0.47933618  0.42534874  0.42277635    -0.27100
C380        C  0.99493669  0.44910998  0.44401346    -0.15200
C381        C  0.03094196  0.45070986  0.44052511     0.35500
C382        C  0.04865115  0.42700141  0.42122923    -0.26500
C383        C  0.03317801  0.40220957  0.40206556    -0.15800
C384        C  0.99753935  0.40222097  0.40319970     0.36600
N385        N  0.47862235  0.37838402  0.38454374    -0.90000
H386        H  0.45234035  0.42362554  0.42290285     0.17700
H387        H  0.07561019  0.42898599  0.42028049     0.17700
N388        N  0.05124116  0.47730988  0.45270611    -0.89000
H389        H  0.46263704  0.39122256  0.36858948     0.35000
H390        H  0.96432709  0.36456077  0.40206745     0.40100
H391        H  0.06400845  0.46969392  0.47390619     0.39800
H392        H  0.03864175  0.49964104  0.45563341     0.34600
C393        C  0.43153446  0.39205345  0.01740068    -0.27100
C394        C  0.40466644  0.40588830  0.03547851    -0.15200
C395        C  0.40156863  0.44120583  0.03275515     0.35500
C396        C  0.42348273  0.46023620  0.01220013    -0.26500
C397        C  0.44890067  0.44616123  0.99211378    -0.15800
C398        C  0.45403681  0.41127648  0.99761301     0.36600
N399        N  0.48312351  0.39471554  0.48548349    -0.90000
H400        H  0.43609647  0.36562540  0.01951525     0.17700
H401        H  0.41970211  0.48685736  0.01112482     0.17700
N402        N  0.37583268  0.45859586  0.05010648    -0.89000
H403        H  0.47565969  0.37438135  0.47129645     0.35000
H404        H  0.49649085  0.38563065  0.50575581     0.40100
H405        H  0.36108839  0.47113045  0.03279315     0.39800
H406        H  0.38707986  0.47626546  0.06532813     0.34600
C407        C  0.43809213  0.03508383  0.40055556    -0.27100
C408        C  0.40278770  0.03160865  0.40040203    -0.15200
C409        C  0.39059055  0.00490225  0.42074887     0.35500
C410        C  0.41223244  0.98568211  0.44104286    -0.26500
C411        C  0.44713368  0.99107068  0.44343583    -0.15800
C412        C  0.45973922  0.01522322  0.42065709     0.36600
N413        N  0.49493700  0.02033864  0.41793602    -0.90000
H414        H  0.44968891  0.05374488  0.38508112     0.17700
H415        H  0.40035394  0.46556350  0.45431888     0.17700
N416        N  0.35636409  0.99487035  0.42083873    -0.89000
H417        H  0.50003098  0.04525199  0.42303612     0.35000
H418        H  0.50146690  0.51507373  0.39293442     0.40100
H419        H  0.35009971  0.98582209  0.39754991     0.39800
H420        H  0.34119886  0.01467608  0.42768528     0.34600
C421        C  0.00830432  0.04695391  0.01907431    -0.27100
C422        C  0.03430038  0.03242316  0.03790150    -0.15200
C423        C  0.03658451  0.99686516  0.03529582     0.35500
C424        C  0.51436605  0.47850754  0.01471588    -0.26500
C425        C  0.99062229  0.99346320  0.99372956    -0.15800
C426        C  0.98576018  0.02816110  0.49892055     0.36600
N427        N  0.95726559  0.04493264  0.48562874    -0.90000
H428        H  0.00370502  0.07330530  0.52122601     0.17700
H429        H  0.51769518  0.45183852  0.01350551     0.17700
N430        N  0.06226311  0.97779860  0.05087372    -0.89000
H431        H  0.96560670  0.06526258  0.47175644     0.35000
H432        H  0.94311506  0.05408526  0.50533488     0.40100
H433        H  0.05975239  0.97914349  0.07647205     0.39800
H434        H  0.08549718  0.48623650  0.04305028     0.34600
C435        C  0.05753922  0.05625872  0.55912842    -0.03300
C436        C  0.37936966  0.05630242  0.87922111    -0.03300
C437        C  0.38113221  0.38183060  0.55707190    -0.03300
C438        C  0.05597499  0.37801435  0.88094101    -0.03300
C439        C  0.47068587  0.47019789  0.96816594    -0.03300
C440        C  0.32902217  0.33088965  0.78347386     0.79500
N441        N  0.36163603  0.32190086  0.77655937    -0.78800
C442        C  0.38527362  0.34593301  0.77178789     0.81900
N443        N  0.37609883  0.37752080  0.77286489    -0.78800
C444        C  0.34436478  0.38653693  0.77088362     0.82000
N445        N  0.32019048  0.36315023  0.77567419    -0.80500
C446        C  0.28585969  0.33276392  0.83123639     0.79500
N447        N  0.27659300  0.32305708  0.86268456    -0.78800
C448        C  0.27388858  0.34656941  0.88685756     0.81900
N449        N  0.27902738  0.37834254  0.87914529    -0.78800
C450        C  0.27751623  0.38862745  0.84799039     0.82000
N451        N  0.28141495  0.36585228  0.82354643    -0.80500
C452        C  0.15068685  0.33275163  0.60598394     0.79500
N453        N  0.15854318  0.32396372  0.57396824    -0.78800
C454        C  0.16375673  0.34809754  0.55082666     0.81900
N455        N  0.16188669  0.37971247  0.55983699    -0.78800
C456        C  0.16241012  0.38877732  0.59134390     0.82000
N457        N  0.15711548  0.36520831  0.61497637    -0.80500
C458        C  0.32993173  0.15354731  0.60546268     0.79500
N459        N  0.36257225  0.16012190  0.61430910    -0.78800
C460        C  0.38632451  0.16413704  0.59037119     0.81900
N461        N  0.37728980  0.16195564  0.55897638    -0.78800
C462        C  0.34561628  0.16526876  0.55004564     0.82000
N463        N  0.32112561  0.16156339  0.57340233    -0.80500
O464        O  0.17881938  0.37308344  0.94064434    -0.75200
O465        O  0.25737338  0.37510460  0.99567361    -0.75200
O466        O  0.24564503  0.37099282  0.93065793    -0.75300
O467        O  0.19020520  0.37171606  0.50533109    -0.75300
O468        O  0.19034598  0.31637190  0.50758856    -0.75300
O469        O  0.24685646  0.31563124  0.93074139    -0.75200
O470        O  0.25622579  0.31977148  0.99691634    -0.75200
O471        O  0.18087212  0.31772895  0.94181523    -0.75300
Ni472      Ni  0.21798616  0.37483152  0.96812025     1.25400
Ni473      Ni  0.21854424  0.31545645  0.96941395     1.25400
C474        C  0.16673576  0.34494653  0.93278287     0.87000
C475        C  0.27008951  0.34749394  0.00467775     0.86900
C476        C  0.25519752  0.34336771  0.91789138     0.86900
C477        C  0.18133588  0.34435941  0.51926337     0.87100
O478        O  0.31604039  0.24872091  0.92948737    -0.75200
O479        O  0.31523547  0.19188948  0.50593514    -0.75200
O480        O  0.31893564  0.25768317  0.99568136    -0.75300
O481        O  0.31886238  0.18254458  0.93997053    -0.75300
O482        O  0.37447502  0.18082076  0.94010949    -0.75300
O483        O  0.37457699  0.25881904  0.99559360    -0.75200
O484        O  0.37090463  0.19180664  0.50518355    -0.75200
O485        O  0.37169928  0.24800912  0.93019559    -0.75300
Ni486      Ni  0.31531931  0.22020830  0.96776931     1.25400
Ni487      Ni  0.37501018  0.21991678  0.96777908     1.25400
C488        C  0.34393941  0.25755738  0.91717890     0.87000
C489        C  0.34296636  0.18300446  0.51843414     0.86900
C490        C  0.34669230  0.27130344  0.00430088     0.86900
C491        C  0.34652128  0.16835686  0.93172650     0.87100
C492        C  0.35881035  0.35898764  0.53332747     0.79500
N493        N  0.32648421  0.36810937  0.52530992    -0.78800
C494        C  0.30283035  0.34406838  0.52090300     0.81900
N495        N  0.31179363  0.31268685  0.02299671    -0.78800
C496        C  0.34358922  0.30329839  0.52094443     0.82000
N497        N  0.36787134  0.32661698  0.52604744    -0.80500
C498        C  0.33048689  0.28748531  0.83065786     0.79500
N499        N  0.32207024  0.28032295  0.86302269    -0.78800
C500        C  0.34674494  0.27596482  0.88588923     0.81900
N501        N  0.37831273  0.27850913  0.87627633    -0.78800
C502        C  0.38667680  0.27519305  0.84468065     0.82000
N503        N  0.36261948  0.27936794  0.82112957    -0.80500
C504        C  0.10881046  0.32963723  0.65397062     0.79500
N505        N  0.07623909  0.32080386  0.66081188    -0.78800
C506        C  0.05274626  0.34508274  0.66460294     0.81900
N507        N  0.06198122  0.37660700  0.66186720    -0.78800
C508        C  0.09368316  0.38535106  0.66555035     0.82000
N509        N  0.11789819  0.36163692  0.66230535    -0.80500
O510        O  0.44177018  0.37349286  0.68067722    -0.75200
O511        O  0.49819055  0.37136789  0.75799566    -0.75200
O512        O  0.00792869  0.36970697  0.69181503    -0.75300
O513        O  0.43211091  0.36977519  0.74721608    -0.75300
O514        O  0.43017849  0.31444213  0.74704822    -0.75300
O515        O  0.00817407  0.31434210  0.69067880    -0.75200
O516        O  0.49735872  0.31603554  0.75612361    -0.75200
O517        O  0.44107852  0.31815654  0.68165062    -0.75300
Ni518      Ni  0.46992657  0.37306503  0.71946324     1.25400
Ni519      Ni  0.46911324  0.31370530  0.71889107     1.25400
C520        C  0.43293954  0.34593978  0.66798482     0.87000
C521        C  0.50666224  0.34325379  0.76987955     0.86900
C522        C  0.02097156  0.34209300  0.68237236     0.86900
C523        C  0.41793262  0.34232269  0.75563398     0.87100
O524        O  0.43002214  0.24683790  0.81375542    -0.75200
O525        O  0.00609023  0.18750225  0.81492901    -0.75200
O526        O  0.43858446  0.18078279  0.81623282    -0.75300
O527        O  0.49733815  0.25351439  0.81742588    -0.75300
O528        O  0.49700905  0.25445368  0.87250247    -0.75300
O529        O  0.43706645  0.17954252  0.87131572    -0.75200
O530        O  0.00352200  0.18736248  0.86997159    -0.75200
O531        O  0.43075756  0.24648847  0.86882104    -0.75300
Ni532      Ni  0.46802306  0.21717434  0.81362103     1.25400
Ni533      Ni  0.46702314  0.21692736  0.87268300     1.25400
C534        C  0.41778325  0.25608623  0.84135006     0.87000
C535        C  0.01765198  0.17839654  0.84287136     0.86900
C536        C  0.42853350  0.16760420  0.84346064     0.86900
C537        C  0.50636479  0.26667739  0.84489434     0.87100
C538        C  0.03576526  0.35389052  0.85702847     0.79500
N539        N  0.02880783  0.32141394  0.86567530    -0.78800
C540        C  0.02437835  0.29825950  0.84155429     0.81900
N541        N  0.52639866  0.30764322  0.81021177    -0.78800
C542        C  0.02393554  0.33945874  0.80152029     0.82000
N543        N  0.02815910  0.36323630  0.82507006    -0.80500
C544        C  0.10581281  0.14920867  0.83169575     0.79500
N545        N  0.11487209  0.15701762  0.86374082    -0.78800
C546        C  0.09070674  0.16207659  0.88715577     0.81900
N547        N  0.05890170  0.16019241  0.87831170    -0.78800
C548        C  0.04969983  0.16117087  0.84684842     0.82000
N549        N  0.07322135  0.15609514  0.82294153    -0.80500
C550        C  0.32898636  0.10901221  0.65216537     0.79500
N551        N  0.36160524  0.11770109  0.65895628    -0.78800
C552        C  0.38500803  0.09337298  0.66314790     0.81900
N553        N  0.37564377  0.06188583  0.66084296    -0.78800
C554        C  0.34383539  0.05319573  0.66382959     0.82000
N555        N  0.31977135  0.07700605  0.66047551    -0.80500
O556        O  0.37129634  0.44141188  0.67944339    -0.75200
O557        O  0.37055160  0.49829500  0.75598837    -0.75200
O558        O  0.36837812  0.43263197  0.74564257    -0.75300
O559        O  0.36811438  0.00742147  0.68939261    -0.75300
O560        O  0.31244935  0.00865049  0.68910762    -0.75300
O561        O  0.31272455  0.43082403  0.74555170    -0.75200
O562        O  0.31489892  0.49755508  0.75489512    -0.75200
O563        O  0.31563335  0.44154590  0.68021365    -0.75300
Ni564      Ni  0.37153601  0.46997290  0.71763599     1.25400
Ni565      Ni  0.31183421  0.46960957  0.71749841     1.25400
C566        C  0.34349446  0.43220831  0.66727174     0.87000
C567        C  0.34251287  0.50657684  0.76842081     0.86900
C568        C  0.34077869  0.41867795  0.75418362     0.86900
C569        C  0.34044688  0.02109626  0.68067089     0.87100
O570        O  0.18033667  0.43763258  0.87474708    -0.75200
O571        O  0.25532311  0.49845276  0.87365005    -0.75200
O572        O  0.18754069  0.00371131  0.87257862    -0.75300
O573        O  0.24828669  0.43229782  0.87230070    -0.75300
O574        O  0.24910132  0.43165079  0.81722425    -0.75300
O575        O  0.18584862  0.00422868  0.81751299    -0.75200
O576        O  0.25248930  0.49878026  0.81864552    -0.75200
O577        O  0.18242372  0.43708040  0.81972133    -0.75300
Ni578      Ni  0.21787831  0.46803974  0.87529357     1.25400
Ni579      Ni  0.21749524  0.46792833  0.81627747     1.25400
C580        C  0.16868476  0.42805509  0.84700271     0.87000
C581        C  0.26652030  0.50794199  0.84557727     0.86900
C582        C  0.17729221  0.01651598  0.84530093     0.86900
C583        C  0.25850950  0.41970659  0.84494097     0.87100
C584        C  0.35469875  0.03605292  0.85555025     0.79500
N585        N  0.36341677  0.02809808  0.82343869    -0.78800
C586        C  0.33900636  0.02369001  0.80025297     0.81900
N587        N  0.30738941  0.52606059  0.80942767    -0.78800
C588        C  0.29823132  0.02522750  0.84103939     0.82000
N589        N  0.32194600  0.03023205  0.86451254    -0.80500
C590        C  0.15087927  0.10410908  0.83168197     0.79500
N591        N  0.15957890  0.11365462  0.86320735    -0.78800
C592        C  0.16253642  0.09003774  0.88737807     0.81900
N593        N  0.15813928  0.05824035  0.87967080    -0.78800
C594        C  0.15939907  0.04814986  0.84852204     0.82000
N595        N  0.15571335  0.07110332  0.82409390    -0.80500
O596        O  0.12419798  0.24492903  0.50755829    -0.75200
O597        O  0.12253320  0.18784663  0.93087773    -0.75200
O598        O  0.11982937  0.25377005  0.94079901    -0.75300
O599        O  0.12089408  0.17915701  0.99754265    -0.75300
O600        O  0.06521774  0.17820865  0.99854127    -0.75300
O601        O  0.06417955  0.25508474  0.94190778    -0.75200
O602        O  0.06690519  0.18835221  0.93291595    -0.75200
O603        O  0.06855442  0.24482020  0.50735560    -0.75300
Ni604      Ni  0.12391270  0.21643642  0.96908989     1.25400
Ni605      Ni  0.06421863  0.21657460  0.97021178     1.25400
C606        C  0.09649254  0.25391914  0.52022398     0.87000
C607        C  0.09439042  0.17931594  0.91897596     0.86900
C608        C  0.09191321  0.26742436  0.93262106     0.86900
C609        C  0.09320455  0.16591383  0.00701562     0.87100
C610        C  0.07842480  0.35536374  0.90470818     0.79500
N611        N  0.11056459  0.36470594  0.91251144    -0.78800
C612        C  0.13461267  0.34100010  0.91620280     0.81900
N613        N  0.12620814  0.30927342  0.91364806    -0.78800
C614        C  0.09464270  0.29964598  0.91574447     0.82000
N615        N  0.06995370  0.32277617  0.91163067    -0.80500
O616        O  0.00739791  0.24833136  0.62142587    -0.75200
O617        O  0.43074230  0.19012869  0.62131607    -0.75200
O618        O  0.49791673  0.18200819  0.61908150    -0.75300
O619        O  0.44061827  0.25586522  0.61844228    -0.75300
O620        O  0.44124930  0.25786905  0.56340048    -0.75300
O621        O  0.49804971  0.18013097  0.56403899    -0.77000
O622        O  0.43191910  0.19092530  0.56624838    -0.75200
O623        O  0.00690493  0.24766582  0.56636201    -0.75300
Ni624      Ni  0.46923354  0.21896471  0.62199538     1.25400
Ni625      Ni  0.46963940  0.21897558  0.56294996     1.25400
C626        C  0.01996917  0.25716380  0.59379666     0.87000
C627        C  0.41834862  0.18163615  0.59363115     0.86900
C628        C  0.50681228  0.16810058  0.59190334     0.86900
C629        C  0.43227380  0.26996345  0.59112313     0.87100
C630        C  0.40321018  0.35815831  0.58025850     0.79500
N631        N  0.41118113  0.36710613  0.61234454    -0.78800
C632        C  0.41654664  0.34288501  0.63555890     0.81900
N633        N  0.41513632  0.31139156  0.62637059    -0.78800
C634        C  0.41580464  0.30234390  0.59495728     0.82000
N635        N  0.41020077  0.32579908  0.57120886    -0.80500
C636        C  0.10787557  0.28578564  0.60674103     0.79500
N637        N  0.11753045  0.27669731  0.57515066    -0.78800
C638        C  0.09357670  0.27260466  0.55135279     0.81900
N639        N  0.06171427  0.27668773  0.55951144    -0.78800
C640        C  0.05182287  0.27515590  0.59074262     0.82000
N641        N  0.07493121  0.27976121  0.61503798    -0.80500
O642        O  0.18050210  0.06280911  0.99711356    -0.75200
O643        O  0.25733436  0.06408733  0.93981700    -0.75200
O644        O  0.24764530  0.06589566  0.50506734    -0.75300
O645        O  0.19035674  0.06601864  0.93170970    -0.75300
O646        O  0.18919803  0.12139124  0.93063464    -0.75300
O647        O  0.24761986  0.12127026  0.50610344    -0.75200
O648        O  0.25522474  0.11945939  0.93983995    -0.75200
O649        O  0.18129209  0.11818592  0.99713685    -0.75300
Ni650      Ni  0.21896891  0.06274393  0.96844332     1.25400
Ni651      Ni  0.21828172  0.12215265  0.96848616     1.25400
C652        C  0.16801454  0.09045941  0.00605053     0.87000
C653        C  0.26922288  0.09211891  0.93110882     0.86900
C654        C  0.25702526  0.09346232  0.51803669     0.86900
C655        C  0.18080759  0.09349142  0.91845598     0.87100
C656        C  0.35719865  0.07967121  0.90279848     0.79500
N657        N  0.36683388  0.11179648  0.91069994    -0.78800
C658        C  0.34294005  0.13575402  0.91550482     0.81900
N659        N  0.31106970  0.12722280  0.91357889    -0.78800
C660        C  0.30144212  0.09579089  0.91459040     0.82000
N661        N  0.32452655  0.07148363  0.90972578    -0.80500
O662        O  0.25615716  0.43918244  0.56524415    -0.75200
O663        O  0.18172350  0.50066000  0.56684376    -0.75200
O664        O  0.24927320  0.00513371  0.56717130    -0.75300
O665        O  0.18858074  0.43458941  0.56831958    -0.75300
O666        O  0.18938812  0.43216198  0.62332960    -0.75300
O667        O  0.25020942  0.00691852  0.62220768    -0.75200
O668        O  0.18396417  0.49960754  0.62187833    -0.75200
O669        O  0.25568622  0.43973842  0.62030327    -0.75300
Ni670      Ni  0.21889268  0.46995789  0.56490361     1.25400
Ni671      Ni  0.21986917  0.46964598  0.62390149     1.25400
C672        C  0.26844651  0.42992812  0.59289914     0.87000
C673        C  0.17025676  0.50948812  0.59496405     0.86900
C674        C  0.25911157  0.01857611  0.59412280     0.86900
C675        C  0.17977659  0.42065189  0.59552534     0.87100
C676        C  0.35614362  0.40112617  0.58116159     0.79500
N677        N  0.36506324  0.40939127  0.61304041    -0.78800
C678        C  0.34072363  0.41317018  0.63645875     0.81900
N679        N  0.30900990  0.40906849  0.62778236    -0.78800
C680        C  0.29978195  0.41119913  0.59630170     0.82000
N681        N  0.32345222  0.40735844  0.57238037    -0.80500
C682        C  0.28752025  0.10611118  0.60408757     0.79500
N683        N  0.28003788  0.11467566  0.57190585    -0.78800
C684        C  0.27588990  0.09034916  0.54889370     0.81900
N685        N  0.27901920  0.05877187  0.55811293    -0.78800
C686        C  0.27723993  0.04993651  0.58975189     0.82000
N687        N  0.28113214  0.07370546  0.61321655    -0.80500
O688        O  0.06478938  0.43823889  0.75852904    -0.75200
O689        O  0.06522352  0.49612239  0.68213342    -0.75200
O690        O  0.06850412  0.43011538  0.69202662    -0.75300
O691        O  0.06673098  0.00398012  0.74868064    -0.75300
O692        O  0.12238672  0.00580972  0.74951160    -0.75300
O693        O  0.12416920  0.42948775  0.69229518    -0.75200
O694        O  0.12084536  0.49641776  0.68402738    -0.75200
O695        O  0.12045271  0.43899926  0.75777592    -0.75300
Ni696      Ni  0.06426121  0.46706632  0.72029042     1.25400
Ni697      Ni  0.12394824  0.46767814  0.72093499     1.25400
C698        C  0.09273523  0.42973931  0.77101379     0.87000
C699        C  0.09328240  0.50546786  0.67038954     0.86900
C700        C  0.09645006  0.41695986  0.68329968     0.86900
C701        C  0.09411906  0.01775190  0.75782602     0.87100
C702        C  0.08043300  0.39927494  0.85781509     0.79500
N703        N  0.07159959  0.40770090  0.82590715    -0.78800
C704        C  0.09596578  0.41206321  0.80263993     0.81900
N705        N  0.12772381  0.40919638  0.81161325    -0.78800
C706        C  0.13681041  0.41036468  0.84313134     0.82000
N707        N  0.11304165  0.40569421  0.86684952    -0.80500
O708        O  0.00626923  0.12296708  0.74696790    -0.75200
O709        O  0.42930762  0.12396655  0.68963949    -0.75200
O710        O  0.43865198  0.12075178  0.75527200    -0.75300
O711        O  0.49655131  0.12060802  0.68163316    -0.75300
O712        O  0.49633324  0.06523437  0.68048697    -0.75300
O713        O  0.43799074  0.06537526  0.75615280    -0.75200
O714        O  0.43016577  0.06859532  0.68971195    -0.75200
O715        O  0.00457082  0.06761841  0.74636681    -0.75300
Ni716      Ni  0.46763270  0.12415142  0.71842194     1.25400
Ni717      Ni  0.46715738  0.06475106  0.71830016     1.25400
C718        C  0.01839984  0.09496305  0.75541107     0.87000
C719        C  0.41688394  0.09630098  0.68071721     0.86900
C720        C  0.42919063  0.09312364  0.76840075     0.86900
C721        C  0.50550517  0.09297691  0.66834940     0.87100
C722        C  0.40032362  0.08035944  0.85538119     0.79500
N723        N  0.40692381  0.11274537  0.86401649    -0.78800
C724        C  0.41020838  0.13638334  0.84006370     0.81900
N725        N  0.40743481  0.12749166  0.80862087    -0.78800
C726        C  0.41094786  0.09595193  0.79973298     0.82000
N727        N  0.40777916  0.07165627  0.82322446    -0.80500
C728        C  0.10640726  0.10540543  0.78528655     0.79500
N729        N  0.07427418  0.11495096  0.77718333    -0.78800
C730        C  0.05028743  0.09118505  0.77275701     0.81900
N731        N  0.05868634  0.05939829  0.77536321    -0.78800
C732        C  0.09027818  0.04974771  0.77440260     0.82000
N733        N  0.11461816  0.07277497  0.77897959    -0.80500
C734        C  0.03539304  0.08034652  0.58160999     0.79500
N735        N  0.02740916  0.07176849  0.61369214    -0.78800
C736        C  0.02318740  0.09616954  0.63666525     0.81900
N737        N  0.52590300  0.12740742  0.62743426    -0.78800
C738        C  0.02419854  0.13647776  0.59580278     0.82000
N739        N  0.02859399  0.11269975  0.57224413    -0.80500
C740        C  0.08238570  0.03767464  0.58387556     0.79500
N741        N  0.11528890  0.03222430  0.57548535    -0.78800
C742        C  0.13858225  0.02723316  0.59935437     0.81900
N743        N  0.12886880  0.52722466  0.63074539    -0.78800
C744        C  0.09701209  0.02419117  0.63924542     0.82000
N745        N  0.07301477  0.02896054  0.61567699    -0.80500
C746        C  0.07991200  0.07858603  0.53491675     0.79500
N747        N  0.11206251  0.06930371  0.52661813    -0.78800
C748        C  0.13611872  0.09325571  0.52365923     0.81900
N749        N  0.12771269  0.12496523  0.02774547    -0.78800
C750        C  0.09599913  0.13431481  0.52480889     0.82000
N751        N  0.07144673  0.11108956  0.52819221    -0.80500
C752        C  0.12993227  0.12802641  0.80793869    -0.03300
C753        C  0.30608396  0.13116016  0.62832546    -0.03300
C754        C  0.30598074  0.30856694  0.80723105    -0.03300
C755        C  0.13166217  0.30769727  0.63001351    -0.03300
C756        C  0.21827532  0.21788167  0.71977183    -0.03300
C757        C  0.14068344  0.25823487  0.66975655    -0.27100
C758        C  0.15549189  0.28434909  0.65155315    -0.15200
C759        C  0.19114556  0.28656469  0.65489266     0.35500
C760        C  0.20916098  0.26430479  0.67558393    -0.26500
C761        C  0.19421571  0.23953801  0.69573938    -0.15800
C762        C  0.15875829  0.23560228  0.69005184     0.36600
N763        N  0.13989468  0.20734178  0.70080946    -0.90000
H764        H  0.11400859  0.25447640  0.66746940     0.17700
H765        H  0.23590905  0.26749955  0.67683532     0.17700
N766        N  0.21073077  0.31156520  0.63888384    -0.89000
H767        H  0.13069292  0.21053300  0.72464492     0.35000
H768        H  0.15274262  0.18514713  0.69730569     0.40100
H769        H  0.20271019  0.33494508  0.64658303     0.39800
H770        H  0.20918833  0.30881538  0.61330261     0.34600
C771        C  0.28444168  0.25039920  0.78686892    -0.27100
C772        C  0.28121981  0.28547480  0.78638861    -0.15200
C773        C  0.25443789  0.29750664  0.76613564     0.35500
C774        C  0.23494325  0.27580458  0.74639110    -0.26500
C775        C  0.23997767  0.24092691  0.74448199    -0.15800
C776        C  0.26471934  0.22845314  0.76730018     0.36600
N777        N  0.27204979  0.19365587  0.77098319    -0.90000
H778        H  0.30321861  0.23904741  0.80236907     0.17700
H779        H  0.21449123  0.28717442  0.73325967     0.17700
N780        N  0.24461822  0.33165214  0.76561529    -0.89000
H781        H  0.29712262  0.19005430  0.76487118     0.35000
H782        H  0.25873271  0.17907279  0.75454781     0.40100
H783        H  0.26446866  0.34637504  0.75782541     0.39800
H784        H  0.23628773  0.33853256  0.78904017     0.34600
C785        C  0.22757526  0.17420556  0.67267040    -0.27100
C786        C  0.24220169  0.19729983  0.69464103    -0.15200
C787        C  0.27777891  0.20091431  0.69051076     0.35500
C788        C  0.29646704  0.17860506  0.67011677    -0.26500
C789        C  0.28184390  0.15398471  0.64998544    -0.15800
C790        C  0.24597775  0.15282312  0.65148026     0.36600
N791        N  0.22641817  0.13009333  0.63260941    -0.90000
H792        H  0.20075398  0.17171628  0.67258315     0.17700
H793        H  0.32333581  0.18137034  0.66906719     0.17700
N794        N  0.29539074  0.22820195  0.70512113    -0.89000
H795        H  0.23266335  0.10578761  0.63914055     0.35000
H796        H  0.22992742  0.13467225  0.60745847     0.40100
H797        H  0.28778070  0.24989259  0.69312176     0.39800
H798        H  0.32113601  0.22628311  0.70121924     0.34600
C799        C  0.15370823  0.18593859  0.78805735    -0.27100
C800        C  0.15421335  0.15069644  0.78580905    -0.15200
C801        C  0.17820824  0.13792193  0.76262034     0.35500
C802        C  0.19843190  0.15917205  0.74301643    -0.26500
C803        C  0.19655396  0.19428922  0.74378298    -0.15800
C804        C  0.17430768  0.20719546  0.76820887     0.36600
N805        N  0.17110410  0.24238837  0.77204994    -0.90000
H806        H  0.13685349  0.19781313  0.80524575     0.17700
H807        H  0.21636018  0.14704755  0.72726043     0.17700
N808        N  0.18362074  0.10321404  0.75769230    -0.89000
H809        H  0.17694724  0.24826721  0.79649715     0.35000
H810        H  0.14620178  0.24897786  0.76794604     0.40100
H811        H  0.16218739  0.09229422  0.74818280     0.39800
H812        H  0.19142685  0.09211966  0.77960431     0.34600
C813        C  0.47958891  0.42573023  0.92266920    -0.27100
C814        C  0.99492573  0.44929285  0.94395180    -0.15200
C815        C  0.03094378  0.45073714  0.94067790     0.35500
C816        C  0.04864232  0.42690913  0.92154729    -0.26500
C817        C  0.03313868  0.40239932  0.90206558    -0.15800
C818        C  0.99749230  0.40283558  0.90266720     0.36600
N819        N  0.47878073  0.37961004  0.88347293    -0.90000
H820        H  0.45258498  0.42415952  0.92262785     0.17700
H821        H  0.07562551  0.42866867  0.92086137     0.17700
N822        N  0.05125453  0.47739392  0.95272395    -0.89000
H823        H  0.46320275  0.39301508  0.86758021     0.35000
H824        H  0.96370523  0.36575280  0.90009600     0.40100
H825        H  0.06416605  0.46980014  0.97384417     0.39800
H826        H  0.03858784  0.49966213  0.95582685     0.34600
C827        C  0.43133899  0.39182662  0.51733585    -0.27100
C828        C  0.40455497  0.40566749  0.53551506    -0.15200
C829        C  0.40143406  0.44097195  0.53278844     0.35500
C830        C  0.42328071  0.46001679  0.51215980    -0.26500
C831        C  0.44870988  0.44596737  0.49206414    -0.15800
C832        C  0.45381843  0.41105280  0.49752715     0.36600
N833        N  0.48338341  0.39498331  0.98560914    -0.90000
H834        H  0.43586643  0.36538630  0.51940411     0.17700
H835        H  0.41947135  0.48663320  0.51107403     0.17700
N836        N  0.37574796  0.45833014  0.55023778    -0.89000
H837        H  0.47597297  0.37465063  0.97139572     0.35000
H838        H  0.49673403  0.38591479  0.00590050     0.40100
H839        H  0.36091094  0.47083391  0.53298368     0.39800
H840        H  0.38703544  0.47601506  0.56541274     0.34600
C841        C  0.43796288  0.03543222  0.90093048    -0.27100
C842        C  0.40265077  0.03191051  0.90065106    -0.15200
C843        C  0.39045643  0.00524691  0.92105647     0.35500
C844        C  0.41211485  0.98593930  0.94128507    -0.26500
C845        C  0.44703801  0.99126939  0.94369561    -0.15800
C846        C  0.45961769  0.01552046  0.92099990     0.36600
N847        N  0.49481134  0.02064609  0.91827331    -0.90000
H848        H  0.44958112  0.05413366  0.88552222     0.17700
H849        H  0.40059279  0.46571910  0.95439148     0.17700
N850        N  0.35619231  0.99535858  0.92129520    -0.89000
H851        H  0.49991444  0.04553705  0.92346572     0.35000
H852        H  0.50154611  0.51533408  0.89293840     0.40100
H853        H  0.34983057  0.98622403  0.89807363     0.39800
H854        H  0.34113793  0.01527739  0.92808329     0.34600
C855        C  0.00782232  0.04679660  0.51940515    -0.27100
C856        C  0.03409492  0.03237041  0.53797588    -0.15200
C857        C  0.03655768  0.99683799  0.53527283     0.35500
C858        C  0.51432335  0.47845437  0.51457399    -0.26500
C859        C  0.99055202  0.99332669  0.49379706    -0.15800
C860        C  0.98620670  0.02841029  0.99856276     0.36600
N861        N  0.95808281  0.04547980  0.98489025    -0.90000
H862        H  0.00443545  0.07351338  0.02070291     0.17700
H863        H  0.51762126  0.45177890  0.51341457     0.17700
N864        N  0.06230200  0.97784139  0.55082147    -0.89000
H865        H  0.96685118  0.06558264  0.97094328     0.35000
H866        H  0.94389140  0.05499690  0.00439256     0.40100
H867        H  0.05976826  0.97912238  0.57642353     0.39800
H868        H  0.08567967  0.48652278  0.54244441     0.34600
C869        C  0.05754522  0.55634733  0.05910926    -0.03300
C870        C  0.37920807  0.55632522  0.37910630    -0.03300
C871        C  0.38101571  0.88206379  0.05705063    -0.03300
C872        C  0.05608864  0.87795687  0.38099534    -0.03300
C873        C  0.47081486  0.97009365  0.46822541    -0.03300
C874        C  0.32897526  0.83068852  0.28312154     0.79500
N875        N  0.36158190  0.82176243  0.27621123    -0.78800
C876        C  0.38519768  0.84583847  0.27167837     0.81900
N877        N  0.37602172  0.87741602  0.27300091    -0.78800
C878        C  0.34428854  0.88638634  0.27076631     0.82000
N879        N  0.32010209  0.86293464  0.27528629    -0.80500
C880        C  0.28636627  0.83277014  0.33131713     0.79500
N881        N  0.27711823  0.82305819  0.36277367    -0.78800
C882        C  0.27415445  0.84658707  0.38689729     0.81900
N883        N  0.27903156  0.87838296  0.37912918    -0.78800
C884        C  0.27766283  0.88862795  0.34795184     0.82000
N885        N  0.28182386  0.86583964  0.32356383    -0.80500
C886        C  0.15057171  0.83300054  0.10603372     0.79500
N887        N  0.15822018  0.82437975  0.07393247    -0.78800
C888        C  0.16327346  0.84861321  0.05085907     0.81900
N889        N  0.16129540  0.88018735  0.05998382    -0.78800
C890        C  0.16211636  0.88909762  0.09154578     0.82000
N891        N  0.15708452  0.86540850  0.11512549    -0.80500
C892        C  0.32980833  0.65365730  0.10546946     0.79500
N893        N  0.36253896  0.65990003  0.11421279    -0.78800
C894        C  0.38626236  0.66380817  0.09023003     0.81900
N895        N  0.37712568  0.66172741  0.05884773    -0.78800
C896        C  0.34544388  0.66542697  0.05003508     0.82000
N897        N  0.32097921  0.66186329  0.07345800    -0.80500
O898        O  0.17910287  0.87279196  0.44054036    -0.75200
O899        O  0.25738717  0.87493404  0.49592799    -0.75200
O900        O  0.24599765  0.87086579  0.43085034    -0.75300
O901        O  0.18997608  0.87232550  0.00547034    -0.75300
O902        O  0.18990523  0.81697526  0.00765652    -0.75300
O903        O  0.24707062  0.81550573  0.43068436    -0.75200
O904        O  0.25656760  0.81958862  0.49685671    -0.75200
O905        O  0.18105349  0.81743951  0.44190629    -0.75300
Ni906      Ni  0.21814275  0.87459077  0.46819542     1.25400
Ni907      Ni  0.21882612  0.81521842  0.46942881     1.25400
C908        C  0.16697637  0.84465374  0.43274794     0.87000
C909        C  0.27024472  0.84734911  0.50480438     0.86900
C910        C  0.25549930  0.84328037  0.41796194     0.86900
C911        C  0.18096244  0.84497489  0.01934120     0.87100
O912        O  0.31635688  0.74860265  0.42920554    -0.75200
O913        O  0.31514331  0.69215367  0.00589761    -0.75200
O914        O  0.31915232  0.75805173  0.49529600    -0.75300
O915        O  0.31906223  0.68254797  0.44017224    -0.75300
O916        O  0.37467648  0.68082657  0.44018345    -0.75300
O917        O  0.37479867  0.75893995  0.49551258    -0.75200
O918        O  0.37081277  0.69245964  0.00548236    -0.75200
O919        O  0.37201809  0.74800619  0.43010022    -0.75300
Ni920      Ni  0.31552745  0.72039040  0.46766745     1.25400
Ni921      Ni  0.37522212  0.71998373  0.46776649     1.25400
C922        C  0.34427602  0.75743234  0.41695470     0.87000
C923        C  0.34285965  0.68342580  0.01854672     0.86900
C924        C  0.34691882  0.77155261  0.50405332     0.86900
C925        C  0.34669908  0.66831125  0.43195593     0.87100
C926        C  0.35855652  0.85935933  0.03328414     0.79500
N927        N  0.32620321  0.86850839  0.02534474    -0.78800
C928        C  0.30251032  0.84448312  0.02095165     0.81900
N929        N  0.31202098  0.81270289  0.52328889    -0.78800
C930        C  0.34324305  0.80369535  0.02101352     0.82000
N931        N  0.36754236  0.82700061  0.02598532    -0.80500
C932        C  0.33079733  0.78736777  0.33044671     0.79500
N933        N  0.32239648  0.78003371  0.36276679    -0.78800
C934        C  0.34708386  0.77572928  0.38562320     0.81900
N935        N  0.37864398  0.77839561  0.37603263    -0.78800
C936        C  0.38702489  0.77518310  0.34442989     0.82000
N937        N  0.36296453  0.77939945  0.32088768    -0.80500
C938        C  0.10864863  0.82977971  0.15396717     0.79500
N939        N  0.07611727  0.82082459  0.16091863    -0.78800
C940        C  0.05258793  0.84503237  0.16497647     0.81900
N941        N  0.06176065  0.87659147  0.16248509    -0.78800
C942        C  0.09345491  0.88544210  0.16582226     0.82000
N943        N  0.11769661  0.86180539  0.16229372    -0.80500
O944        O  0.44194769  0.87347358  0.18052154    -0.75200
O945        O  0.49787371  0.87124761  0.25813959    -0.75200
O946        O  0.00759790  0.86955103  0.19188766    -0.75300
O947        O  0.43190374  0.86975772  0.24697788    -0.75300
O948        O  0.42999078  0.81441518  0.24685390    -0.75300
O949        O  0.00788594  0.81418921  0.19088877    -0.75200
O950        O  0.49704536  0.81591255  0.25621342    -0.75200
O951        O  0.44112250  0.81813686  0.18147992    -0.75300
Ni952      Ni  0.46986945  0.87297757  0.21945757     1.25400
Ni953      Ni  0.46898387  0.81360731  0.21885742     1.25400
C954        C  0.43305523  0.84594916  0.16781997     0.87000
C955        C  0.50628784  0.84312553  0.27002384     0.86900
C956        C  0.02070325  0.84193235  0.18256211     0.86900
C957        C  0.41776340  0.84229901  0.25542434     0.87100
O958        O  0.43029833  0.74668146  0.31351898    -0.75200
O959        O  0.00595065  0.68753261  0.31491558    -0.75200
O960        O  0.43857274  0.68058775  0.31596087    -0.75300
O961        O  0.49762604  0.75311578  0.31737872    -0.75300
O962        O  0.49719694  0.75402296  0.37245350    -0.75300
O963        O  0.43692183  0.67940897  0.37104299    -0.75200
O964        O  0.00316384  0.68717151  0.36995107    -0.75200
O965        O  0.43097938  0.74633657  0.36858441    -0.75300
Ni966      Ni  0.46818703  0.71687310  0.31344023     1.25400
Ni967      Ni  0.46706976  0.71661135  0.37250068     1.25400
C968        C  0.41807504  0.75598729  0.34110146     0.87000
C969        C  0.01742162  0.67836168  0.34287238     0.86900
C970        C  0.42833822  0.66752796  0.34318459     0.86900
C971        C  0.50657097  0.76629194  0.34487473     0.87100
C972        C  0.03578533  0.85387670  0.35712192     0.79500
N973        N  0.02864985  0.82144344  0.36583852    -0.78800
C974        C  0.02412827  0.79827029  0.34174158     0.81900
N975        N  0.52612531  0.80749613  0.31025460    -0.78800
C976        C  0.02384312  0.83943225  0.30164322     0.82000
N977        N  0.02822674  0.86321400  0.32514911    -0.80500
C978        C  0.10564652  0.64939718  0.33176080     0.79500
N979        N  0.11474535  0.65724823  0.36377805    -0.78800
C980        C  0.09060824  0.66232197  0.38720351     0.81900
N981        N  0.05879343  0.66056622  0.37837058    -0.78800
C982        C  0.04955278  0.66135711  0.34691924     0.82000
N983        N  0.07304573  0.65621323  0.32302273    -0.80500
C984        C  0.32847770  0.60944022  0.15252475     0.79500
N985        N  0.36104833  0.61820341  0.15949842    -0.78800
C986        C  0.38444795  0.59390741  0.16387998     0.81900
N987        N  0.37509535  0.56242534  0.16175360    -0.78800
C988        C  0.34330105  0.55366865  0.16448130     0.82000
N989        N  0.31921617  0.57743269  0.16087080    -0.80500
O990        O  0.37143591  0.94154297  0.17935673    -0.75200
O991        O  0.37070611  0.99805017  0.25612730    -0.75200
O992        O  0.36845310  0.93241573  0.24547870    -0.75300
O993        O  0.36768478  0.50773298  0.18963240    -0.75300
O994        O  0.31202090  0.50874765  0.18937869    -0.75300
O995        O  0.31279132  0.93083147  0.24554357    -0.75200
O996        O  0.31505066  0.99755164  0.25483870    -0.75200
O997        O  0.31577079  0.94152883  0.18026733    -0.75300
Ni998      Ni  0.37169487  0.96991841  0.21766232     1.25400
Ni999      Ni  0.31198578  0.96960496  0.21748950     1.25400
C1000       C  0.34362195  0.93227056  0.16726889     0.87000
C1001       C  0.34265423  0.00641690  0.26846759     0.86900
C1002       C  0.34081463  0.91854513  0.25405993     0.86900
C1003       C  0.33995902  0.52139285  0.18104599     0.87100
O1004       O  0.18034618  0.93748857  0.37462279    -0.75200
O1005       O  0.25532051  0.99832106  0.37366165    -0.75200
O1006       O  0.18732227  0.50365003  0.37235270    -0.75300
O1007       O  0.24828753  0.93221074  0.37216418    -0.75300
O1008       O  0.24916495  0.93163643  0.31709322    -0.75300
O1009       O  0.18584339  0.50442940  0.31728429    -0.75200
O1010       O  0.25241645  0.99880285  0.31866285    -0.75200
O1011       O  0.18244479  0.93698371  0.31959553    -0.75300
Ni1012     Ni  0.21787232  0.96790639  0.37524837     1.25400
Ni1013     Ni  0.21747140  0.96789347  0.31623699     1.25400
C1014       C  0.16869846  0.92794185  0.34686537     0.87000
C1015       C  0.26650095  0.00786654  0.34560051     0.86900
C1016       C  0.17712868  0.51655253  0.34510223     0.86900
C1017       C  0.25857272  0.91966909  0.34481066     0.87100
C1018       C  0.35447545  0.53623662  0.35544014     0.79500
N1019       N  0.36319015  0.52827452  0.32334982    -0.78800
C1020       C  0.33876799  0.52392294  0.30018266     0.81900
N1021       N  0.30747104  0.02577530  0.30946187    -0.78800
C1022       C  0.29800072  0.52553920  0.34093716     0.82000
N1023       N  0.32172688  0.53043730  0.36441131    -0.80500
C1024       C  0.15045358  0.60410927  0.33180079     0.79500
N1025       N  0.15906256  0.61352555  0.36337467    -0.78800
C1026       C  0.16203480  0.58983512  0.38745290     0.81900
N1027       N  0.15772863  0.55805372  0.37962571    -0.78800
C1028       C  0.15908316  0.54809963  0.34842465     0.82000
N1029       N  0.15535547  0.57114417  0.32407725    -0.80500
O1030       O  0.12433976  0.74492080  0.00738426    -0.75200
O1031       O  0.12254606  0.68789160  0.43093138    -0.75200
O1032       O  0.11997004  0.75374068  0.44105341    -0.75300
O1033       O  0.12092735  0.67898603  0.49759321    -0.75300
O1034       O  0.06525130  0.67836001  0.49890809    -0.75300
O1035       O  0.06431194  0.75489766  0.44178427    -0.75200
O1036       O  0.06692255  0.68813722  0.43322140    -0.75200
O1037       O  0.06870296  0.74496862  0.00708286    -0.75300
Ni1038     Ni  0.12397681  0.71633122  0.46924218     1.25400
Ni1039     Ni  0.06428192  0.71655391  0.47033393     1.25400
C1040       C  0.09663856  0.75394837  0.02004875     0.87000
C1041       C  0.09438060  0.67930059  0.41912337     0.86900
C1042       C  0.09207503  0.76728974  0.43264043     0.86900
C1043       C  0.09322068  0.66594308  0.50727863     0.87100
C1044       C  0.07867377  0.85519646  0.40458045     0.79500
N1045       N  0.11085057  0.86448702  0.41233893    -0.78800
C1046       C  0.13487509  0.84074413  0.41606942     0.81900
N1047       N  0.12643211  0.80902634  0.41350680    -0.78800
C1048       C  0.09484745  0.79944262  0.41561749     0.82000
N1049       N  0.07018723  0.82260594  0.41148493    -0.80500
O1050       O  0.00736524  0.74836548  0.12136014    -0.75200
O1051       O  0.43055424  0.69002696  0.12116345    -0.75200
O1052       O  0.49779084  0.68228682  0.11893711    -0.75300
O1053       O  0.44002438  0.75584728  0.11843954    -0.75300
O1054       O  0.44055983  0.75785919  0.06339985    -0.75300
O1055       O  0.49802689  0.68053694  0.06389934    -0.77000
O1056       O  0.43178561  0.69078639  0.06609934    -0.75200
O1057       O  0.00682518  0.74774525  0.06629882    -0.75300
Ni1058     Ni  0.46888280  0.71909674  0.12191392     1.25400
Ni1059     Ni  0.46927956  0.71918698  0.06288009     1.25400
C1060       C  0.01992126  0.75721786  0.09372473     0.87000
C1061       C  0.41824384  0.68142192  0.09347134     0.86900
C1062       C  0.50680242  0.66845927  0.09174729     0.86900
C1063       C  0.43158415  0.76992626  0.09113783     0.87100
C1064       C  0.40298375  0.85824289  0.08021984     0.79500
N1065       N  0.41123162  0.86720347  0.11223232    -0.78800
C1066       C  0.41650045  0.84297173  0.13546976     0.81900
N1067       N  0.41468859  0.81146228  0.12638166    -0.78800
C1068       C  0.41515052  0.80233795  0.09498666     0.82000
N1069       N  0.40966318  0.82580417  0.07122378    -0.80500
C1070       C  0.10782835  0.78594998  0.10668262     0.79500
N1071       N  0.11756694  0.77678201  0.07511614    -0.78800
C1072       C  0.09365650  0.77251505  0.05128547     0.81900
N1073       N  0.06177108  0.77645935  0.05941066    -0.78800
C1074       C  0.05181655  0.77514524  0.09062658     0.82000
N1075       N  0.07486486  0.77995786  0.11493172    -0.80500
O1076       O  0.18025457  0.56289225  0.49707749    -0.75200
O1077       O  0.25711987  0.56401690  0.43980147    -0.75200
O1078       O  0.24748390  0.56641032  0.00497194    -0.75300
O1079       O  0.19006951  0.56584734  0.43167873    -0.75300
O1080       O  0.18877005  0.62122099  0.43056311    -0.75300
O1081       O  0.24734500  0.62178439  0.00598441    -0.75200
O1082       O  0.25486398  0.61938120  0.43957588    -0.75200
O1083       O  0.18101334  0.61827222  0.49704096    -0.75300
Ni1084     Ni  0.21871524  0.56274197  0.46840679     1.25400
Ni1085     Ni  0.21795826  0.62214873  0.46830271     1.25400
C1086       C  0.16777259  0.59054834  0.50601016     0.87000
C1087       C  0.26900049  0.59204085  0.43105035     0.86900
C1088       C  0.25675778  0.59400118  0.01796754     0.86900
C1089       C  0.18038881  0.59328777  0.41845891     0.87100
C1090       C  0.35713747  0.57960788  0.40286224     0.79500
N1091       N  0.36685945  0.61168023  0.41088097    -0.78800
C1092       C  0.34301669  0.63563241  0.41593733     0.81900
N1093       N  0.31112809  0.62714613  0.41419628    -0.78800
C1094       C  0.30140608  0.59575260  0.41486306     0.82000
N1095       N  0.32443937  0.57144920  0.40976949    -0.80500
O1096       O  0.25614593  0.93930884  0.06535439    -0.75200
O1097       O  0.18170858  0.00071718  0.06703819    -0.75200
O1098       O  0.24935594  0.50549265  0.06695499    -0.75300
O1099       O  0.18858394  0.93470251  0.06850698    -0.75300
O1100       O  0.18926399  0.93239537  0.12352382    -0.75300
O1101       O  0.25049861  0.50724114  0.12199290    -0.75200
O1102       O  0.18410598  0.99986134  0.12207212    -0.75200
O1103       O  0.25560170  0.93969406  0.12041907    -0.75300
Ni1104     Ni  0.21887678  0.97004491  0.06504974     1.25400
Ni1105     Ni  0.21991137  0.96974435  0.12405099     1.25400
C1106       C  0.26841696  0.93000800  0.09299890     0.87000
C1107       C  0.17031684  0.00963230  0.09515844     0.86900
C1108       C  0.25929371  0.51891190  0.09388206     0.86900
C1109       C  0.17966920  0.92086369  0.09572184     0.87100
C1110       C  0.35615241  0.90141913  0.08115233     0.79500
N1111       N  0.36512053  0.90955391  0.11303665    -0.78800
C1112       C  0.34080637  0.91327317  0.13647350     0.81900
N1113       N  0.30907655  0.90920958  0.12782314    -0.78800
C1114       C  0.29981591  0.91141344  0.09636113     0.82000
N1115       N  0.32346832  0.90770925  0.07241728    -0.80500
C1116       C  0.28729483  0.60645475  0.10410516     0.79500
N1117       N  0.27956707  0.61515373  0.07200351    -0.78800
C1118       C  0.27556694  0.59090071  0.04886584     0.81900
N1119       N  0.27892222  0.55929355  0.05792317    -0.78800
C1120       C  0.27735908  0.55029370  0.08951962     0.82000
N1121       N  0.28127627  0.57395003  0.11306776    -0.80500
O1122       O  0.06464072  0.93846647  0.25851879    -0.75200
O1123       O  0.06523672  0.99650049  0.18222764    -0.75200
O1124       O  0.06837912  0.93045074  0.19198405    -0.75300
O1125       O  0.06661828  0.50426826  0.24849383    -0.75300
O1126       O  0.12227416  0.50602657  0.24943013    -0.75300
O1127       O  0.12404028  0.92969154  0.19233336    -0.75200
O1128       O  0.12086135  0.99667248  0.18412450    -0.75200
O1129       O  0.12030188  0.93921201  0.25780379    -0.75300
Ni1130     Ni  0.06418356  0.96735656  0.22031013     1.25400
Ni1131     Ni  0.12387015  0.96789251  0.22098723     1.25400
C1132       C  0.09257646  0.92995004  0.27102201     0.87000
C1133       C  0.09332004  0.00582710  0.17052502     0.86900
C1134       C  0.09630189  0.91718981  0.18334437     0.86900
C1135       C  0.09400368  0.51806173  0.25760883     0.87100
C1136       C  0.08044679  0.89928924  0.35782585     0.79500
N1137       N  0.07151906  0.90782021  0.32595899    -0.78800
C1138       C  0.09583021  0.91221165  0.30262698     0.81900
N1139       N  0.12761258  0.90926652  0.31150646    -0.78800
C1140       C  0.13679334  0.91031869  0.34300009     0.82000
N1141       N  0.11309015  0.90562437  0.36677002    -0.80500
O1142       O  0.00582018  0.62344318  0.24681933    -0.75200
O1143       O  0.42898193  0.62452435  0.19001982    -0.75200
O1144       O  0.43900021  0.62101980  0.25553083    -0.75300
O1145       O  0.49620871  0.62118241  0.18132568    -0.75300
O1146       O  0.49618333  0.56580049  0.18024305    -0.75300
O1147       O  0.43817720  0.56564252  0.25606408    -0.75200
O1148       O  0.43002351  0.56915950  0.18973841    -0.75200
O1149       O  0.00405590  0.56810220  0.24658151    -0.75300
Ni1150     Ni  0.46762755  0.62461539  0.21840337     1.25400
Ni1151     Ni  0.46717605  0.56521071  0.21811231     1.25400
C1152       C  0.01799061  0.59548117  0.25537444     0.87000
C1153       C  0.41653836  0.59687728  0.18107187     0.86900
C1154       C  0.42943680  0.59332600  0.26847170     0.86900
C1155       C  0.50529423  0.59355132  0.16811508     0.87100
C1156       C  0.40014167  0.58042650  0.35527863     0.79500
N1157       N  0.40652574  0.61286353  0.36384720    -0.78800
C1158       C  0.40974138  0.63646396  0.33985559     0.81900
N1159       N  0.40694771  0.62750438  0.30843819    -0.78800
C1160       C  0.41090582  0.59598017  0.29965573     0.82000
N1161       N  0.40784726  0.57168205  0.32318397    -0.80500
C1162       C  0.10624100  0.60577840  0.28515849     0.79500
N1163       N  0.07409852  0.61539378  0.27704952    -0.78800
C1164       C  0.05010359  0.59166359  0.27239786     0.81900
N1165       N  0.05854585  0.55987341  0.27467444    -0.78800
C1166       C  0.09011875  0.55018293  0.27394109     0.82000
N1167       N  0.11444586  0.57316140  0.27876328    -0.80500
C1168       C  0.03538104  0.58040714  0.08165319     0.79500
N1169       N  0.02746121  0.57186319  0.11377416    -0.78800
C1170       C  0.02320922  0.59628663  0.13673333     0.81900
N1171       N  0.52607458  0.62785784  0.12729576    -0.78800
C1172       C  0.02411101  0.63654287  0.09580831     0.82000
N1173       N  0.02852111  0.61274266  0.07226953    -0.80500
C1174       C  0.08236874  0.53766301  0.08377980     0.79500
N1175       N  0.11525176  0.53209344  0.07534864    -0.78800
C1176       C  0.13855884  0.52708966  0.09921041     0.81900
N1177       N  0.12894778  0.02757248  0.13091436    -0.78800
C1178       C  0.09700448  0.52425634  0.13913469     0.82000
N1179       N  0.07300978  0.52905328  0.11559636    -0.80500
C1180       C  0.07994319  0.57877007  0.03500885     0.79500
N1181       N  0.11211633  0.56954527  0.02677039    -0.78800
C1182       C  0.13612103  0.59353221  0.02379932     0.81900
N1183       N  0.12763680  0.62499672  0.52820075    -0.78800
C1184       C  0.09593988  0.63450552  0.02475134     0.82000
N1185       N  0.07140976  0.61124495  0.02818067    -0.80500
C1186       C  0.12974255  0.62820533  0.30804518    -0.03300
C1187       C  0.30578252  0.63148445  0.12839325    -0.03300
C1188       C  0.30616725  0.80846931  0.30717583    -0.03300
C1189       C  0.13155699  0.80787067  0.13001678    -0.03300
C1190       C  0.21806302  0.71807469  0.22000681    -0.03300
C1191       C  0.14046516  0.75856143  0.17002574    -0.27100
C1192       C  0.15534103  0.78451786  0.15163633    -0.15200
C1193       C  0.19100644  0.78659569  0.15490564     0.35500
C1194       C  0.20894970  0.76448925  0.17582723    -0.26500
C1195       C  0.19396917  0.73981172  0.19606795    -0.15800
C1196       C  0.15848781  0.73598300  0.19044987     0.36600
N1197       N  0.13951704  0.70790843  0.20148843    -0.90000
H1198       H  0.11377246  0.75489143  0.16779365     0.17700
H1199       H  0.23569546  0.76763579  0.17705213     0.17700
N1200       N  0.21070364  0.81121335  0.13845302    -0.89000
H1201       H  0.13061882  0.71125081  0.22540444     0.35000
H1202       H  0.15222910  0.68562759  0.19794591     0.40100
H1203       H  0.20297170  0.83475772  0.14592590     0.39800
H1204       H  0.20889751  0.80816587  0.11291937     0.34600
C1205       C  0.28455682  0.75032747  0.28686220    -0.27100
C1206       C  0.28116720  0.78538523  0.28664373    -0.15200
C1207       C  0.25407088  0.79743530  0.26683379     0.35500
C1208       C  0.23467491  0.77583985  0.24688836    -0.26500
C1209       C  0.23986686  0.74100930  0.24469444    -0.15800
C1210       C  0.26476097  0.72844892  0.26731140     0.36600
N1211       N  0.27220919  0.69364854  0.27073592    -0.90000
H1212       H  0.30353339  0.73895108  0.30210889     0.17700
H1213       H  0.21410567  0.78719479  0.23391153     0.17700
N1214       N  0.24374083  0.83143178  0.26713817    -0.89000
H1215       H  0.29726827  0.69015074  0.26442632     0.35000
H1216       H  0.25880694  0.67913537  0.25435464     0.40100
H1217       H  0.26334003  0.84662475  0.25962993     0.39800
H1218       H  0.23546908  0.83762093  0.29078768     0.34600
C1219       C  0.22724207  0.67419318  0.17303101    -0.27100
C1220       C  0.24188562  0.69753824  0.19474244    -0.15200
C1221       C  0.27739983  0.70141086  0.19030115     0.35500
C1222       C  0.29605986  0.67929942  0.16969007    -0.26500
C1223       C  0.28148631  0.65438655  0.14990188    -0.15800
C1224       C  0.24566147  0.65273806  0.15190534     0.36600
N1225       N  0.22622237  0.62923713  0.13385645    -0.90000
H1226       H  0.20043723  0.67142280  0.17327977     0.17700
H1227       H  0.32288441  0.68233688  0.16833133     0.17700
N1228       N  0.29499845  0.72868781  0.20494585    -0.89000
H1229       H  0.23316066  0.60520516  0.14071820     0.35000
H1230       H  0.22914953  0.63337218  0.10856107     0.40100
H1231       H  0.28742489  0.75039371  0.19296544     0.39800
H1232       H  0.32075220  0.72675605  0.20110072     0.34600
C1233       C  0.15373325  0.68612573  0.28848149    -0.27100
C1234       C  0.15422253  0.65088659  0.28617874    -0.15200
C1235       C  0.17838648  0.63812288  0.26317530     0.35500
C1236       C  0.19841762  0.65937721  0.24340494    -0.26500
C1237       C  0.19644521  0.69448667  0.24410032    -0.15800
C1238       C  0.17436103  0.70738497  0.26867993     0.36600
N1239       N  0.17136931  0.74256907  0.27275874    -0.90000
H1240       H  0.13690002  0.69799799  0.30569278     0.17700
H1241       H  0.21641342  0.64726112  0.22772114     0.17700
N1242       N  0.18438666  0.60343113  0.25882925    -0.89000
H1243       H  0.17739337  0.74825980  0.29720852     0.35000
H1244       H  0.14648361  0.74933047  0.26883982     0.40100
H1245       H  0.16315038  0.59193972  0.24958177     0.39800
H1246       H  0.19246118  0.59288902  0.28092073     0.34600
C1247       C  0.47970782  0.92545753  0.42294629    -0.27100
C1248       C  0.99498624  0.94900625  0.44434688    -0.15200
C1249       C  0.03100965  0.95050719  0.44104415     0.35500
C1250       C  0.04873881  0.92684189  0.42171106    -0.26500
C1251       C  0.03326537  0.90228137  0.40225665    -0.15800
C1252       C  0.99761360  0.90259069  0.40301484     0.36600
N1253       N  0.47883603  0.87863210  0.38461465    -0.90000
H1254       H  0.45271282  0.92375311  0.42310164     0.17700
H1255       H  0.07571466  0.92869415  0.42094678     0.17700
N1256       N  0.05132168  0.97696809  0.45348044    -0.89000
H1257       H  0.46283581  0.89155477  0.36874311     0.35000
H1258       H  0.96390248  0.86544697  0.40038097     0.40100
H1259       H  0.06389414  0.96925520  0.47475539     0.39800
H1260       H  0.03880843  0.99937922  0.45625267     0.34600
C1261       C  0.43149489  0.89200970  0.01762576    -0.27100
C1262       C  0.40456502  0.90586313  0.03559172    -0.15200
C1263       C  0.40143112  0.94116183  0.03278085     0.35500
C1264       C  0.42345125  0.96018880  0.01233819    -0.26500
C1265       C  0.44895615  0.94611685  0.99236340    -0.15800
C1266       C  0.45405299  0.91121214  0.99787717     0.36600
N1267       N  0.48341875  0.89487321  0.48578726    -0.90000
H1268       H  0.43603433  0.86557789  0.01977317     0.17700
H1269       H  0.41964466  0.98680211  0.01121259     0.17700
N1270       N  0.37550541  0.95852613  0.04987710    -0.89000
H1271       H  0.47600503  0.87451821  0.47160629     0.35000
H1272       H  0.49672936  0.88582567  0.50611303     0.40100
H1273       H  0.36087286  0.97097491  0.03240998     0.39800
H1274       H  0.38657631  0.97626381  0.06514529     0.34600
C1275       C  0.43777526  0.53496633  0.40030184    -0.27100
C1276       C  0.40244271  0.53174479  0.40032743    -0.15200
C1277       C  0.39018158  0.50518707  0.42083198     0.35500
C1278       C  0.41181434  0.48585318  0.44105325    -0.26500
C1279       C  0.44676814  0.49103982  0.44330631    -0.15800
C1280       C  0.45939608  0.51502783  0.42036023     0.36600
N1281       N  0.49460894  0.51988348  0.41739384    -0.90000
H1282       H  0.44943554  0.55347188  0.38469125     0.17700
H1283       H  0.40084529  0.96530859  0.45425112     0.17700
N1284       N  0.35587664  0.49543328  0.42118687    -0.89000
H1285       H  0.49991984  0.54478197  0.42234438     0.35000
H1286       H  0.50198522  0.01569416  0.39349689     0.40100
H1287       H  0.34938032  0.48634783  0.39797974     0.39800
H1288       H  0.34092035  0.51538054  0.42807617     0.34600
C1289       C  0.00797566  0.54694543  0.01920308    -0.27100
C1290       C  0.03418167  0.53248052  0.03782187    -0.15200
C1291       C  0.03663226  0.49693560  0.03505238     0.35500
C1292       C  0.51466634  0.97849131  0.01483875    -0.26500
C1293       C  0.99068158  0.49351404  0.99350014    -0.15800
C1294       C  0.98614453  0.52845096  0.49834348     0.36600
N1295       N  0.95806073  0.54549791  0.48455809    -0.90000
H1296       H  0.00413034  0.57350724  0.52080000     0.17700
H1297       H  0.51804590  0.95182988  0.01358831     0.17700
N1298       N  0.06211714  0.47783649  0.05089021    -0.89000
H1299       H  0.96686909  0.56564128  0.47069315     0.35000
H1300       H  0.94374030  0.55494796  0.50400027     0.40100
H1301       H  0.05933193  0.47919649  0.07646194     0.39800
H1302       H  0.08554252  0.98628723  0.04282187     0.34600
C1303       C  0.05753500  0.55624278  0.55911547    -0.03300
C1304       C  0.37935524  0.55646111  0.87924476    -0.03300
C1305       C  0.38120971  0.88211760  0.55709789    -0.03300
C1306       C  0.05572099  0.87796523  0.88087117    -0.03300
C1307       C  0.47075533  0.97017675  0.96842958    -0.03300
C1308       C  0.32884315  0.83109186  0.78318729     0.79500
N1309       N  0.36146901  0.82222491  0.77632666    -0.78800
C1310       C  0.38502550  0.84632182  0.77167062     0.81900
N1311       N  0.37579042  0.87788067  0.77283780    -0.78800
C1312       C  0.34403466  0.88681059  0.77072811     0.82000
N1313       N  0.31990044  0.86332234  0.77533169    -0.80500
C1314       C  0.28606839  0.83293173  0.83122645     0.79500
N1315       N  0.27682859  0.82322023  0.86268101    -0.78800
C1316       C  0.27412585  0.84675019  0.88684440     0.81900
N1317       N  0.27933983  0.87850928  0.87911753    -0.78800
C1318       C  0.27768185  0.88876609  0.84795292     0.82000
N1319       N  0.28155921  0.86599424  0.82352314    -0.80500
C1320       C  0.15057635  0.83278802  0.60614963     0.79500
N1321       N  0.15856012  0.82400975  0.57418056    -0.78800
C1322       C  0.16355552  0.84814948  0.55100528     0.81900
N1323       N  0.16134545  0.87977804  0.55993876    -0.78800
C1324       C  0.16198375  0.88885681  0.59145080     0.82000
N1325       N  0.15684163  0.86527934  0.61510914    -0.80500
C1326       C  0.33015041  0.65340861  0.60550861     0.79500
N1327       N  0.36283708  0.65976895  0.61436161    -0.78800
C1328       C  0.38660578  0.66380940  0.59043820     0.81900
N1329       N  0.37754184  0.66182711  0.55902879    -0.78800
C1330       C  0.34587758  0.66536937  0.55014139     0.82000
N1331       N  0.32137468  0.66160350  0.57348305    -0.80500
O1332       O  0.17874295  0.87330294  0.94037313    -0.75200
O1333       O  0.25718849  0.87533834  0.99558565    -0.75200
O1334       O  0.24563023  0.87123925  0.93050827    -0.75300
O1335       O  0.19019688  0.87178988  0.50561994    -0.75300
O1336       O  0.19047528  0.81644753  0.50800927    -0.75300
O1337       O  0.24688087  0.81587996  0.93063934    -0.75200
O1338       O  0.25602637  0.82000688  0.99683635    -0.75200
O1339       O  0.18085821  0.81795262  0.94151493    -0.75300
Ni1340     Ni  0.21785725  0.87506256  0.96794077     1.25400
Ni1341     Ni  0.21844343  0.81569172  0.96922439     1.25400
C1342       C  0.16670403  0.84515533  0.93247122     0.87000
C1343       C  0.26987448  0.84772354  0.00462923     0.86900
C1344       C  0.25526610  0.84360655  0.91780039     0.86900
C1345       C  0.18134440  0.84444220  0.51957387     0.87100
O1346       O  0.31618534  0.74888948  0.92917528    -0.75200
O1347       O  0.31552086  0.69229717  0.50620639    -0.75200
O1348       O  0.31873648  0.75796426  0.99534721    -0.75300
O1349       O  0.31894526  0.68275491  0.93978144    -0.75300
O1350       O  0.37455072  0.68086383  0.94033448    -0.75300
O1351       O  0.37438163  0.75913525  0.99536073    -0.75200
O1352       O  0.37118899  0.69217627  0.50539980    -0.75200
O1353       O  0.37184388  0.74799492  0.92997911    -0.75300
Ni1354     Ni  0.31525232  0.72045015  0.96748752     1.25400
Ni1355     Ni  0.37494575  0.72011032  0.96776238     1.25400
C1356       C  0.34413230  0.75758754  0.91688525     0.87000
C1357       C  0.34325711  0.68333765  0.51864518     0.86900
C1358       C  0.34647126  0.77159362  0.00400877     0.86900
C1359       C  0.34662432  0.66844486  0.93182161     0.87100
C1360       C  0.35887668  0.85936213  0.53327473     0.79500
N1361       N  0.32648640  0.86838440  0.52538660    -0.78800
C1362       C  0.30286416  0.84426377  0.52117266     0.81900
N1363       N  0.31156234  0.81288339  0.02292374    -0.78800
C1364       C  0.34372809  0.80362685  0.52115202     0.82000
N1365       N  0.36797237  0.82703525  0.52594336    -0.80500
C1366       C  0.33067214  0.78769106  0.83041417     0.79500
N1367       N  0.32229355  0.78040087  0.86275299    -0.78800
C1368       C  0.34698731  0.77591912  0.88556404     0.81900
N1369       N  0.37853825  0.77843264  0.87592171    -0.78800
C1370       C  0.38687723  0.77529234  0.84429754     0.82000
N1371       N  0.36279347  0.77960077  0.82079059    -0.80500
C1372       C  0.10874440  0.82943540  0.65418929     0.79500
N1373       N  0.07619429  0.82048219  0.66109582    -0.78800
C1374       C  0.05266870  0.84469234  0.66515993     0.81900
N1375       N  0.06188112  0.87624161  0.66275847    -0.78800
C1376       C  0.09358603  0.88507132  0.66607060     0.82000
N1377       N  0.11781412  0.86143184  0.66255675    -0.80500
O1378       O  0.44196929  0.87373684  0.68063184    -0.75200
O1379       O  0.49782321  0.87147870  0.75828459    -0.75200
O1380       O  0.00751372  0.86921905  0.69180375    -0.75300
O1381       O  0.43185506  0.87015006  0.74710208    -0.75300
O1382       O  0.42978439  0.81480962  0.74698710    -0.75300
O1383       O  0.00781345  0.81385772  0.69088690    -0.75200
O1384       O  0.49677806  0.81614077  0.75649012    -0.75200
O1385       O  0.44107885  0.81840055  0.68167129    -0.75300
Ni1386     Ni  0.46985053  0.87322498  0.71958841     1.25400
Ni1387     Ni  0.46882445  0.81385332  0.71908673     1.25400
C1388       C  0.43312430  0.84619918  0.66793067     0.87000
C1389       C  0.50611689  0.84334981  0.77023469     0.86900
C1390       C  0.02067194  0.84159166  0.68257558     0.86900
C1391       C  0.41762542  0.84272955  0.75552576     0.87100
O1392       O  0.43024200  0.74692727  0.81332280    -0.75200
O1393       O  0.00578091  0.68749401  0.81451142    -0.75200
O1394       O  0.43842075  0.68082668  0.81586150    -0.75300
O1395       O  0.49764796  0.75328581  0.81720096    -0.75300
O1396       O  0.49713157  0.75419819  0.87227618    -0.75300
O1397       O  0.43684684  0.67962077  0.87094362    -0.75200
O1398       O  0.00301747  0.68699093  0.86954040    -0.75200
O1399       O  0.43089380  0.74652002  0.86838559    -0.75300
Ni1400     Ni  0.46811455  0.71707132  0.81328950     1.25400
Ni1401     Ni  0.46699062  0.71681788  0.87234780     1.25400
C1402       C  0.41797561  0.75617059  0.84091016     0.87000
C1403       C  0.01731634  0.67829392  0.84243938     0.86900
C1404       C  0.42823212  0.66774351  0.84309691     0.86900
C1405       C  0.50661613  0.76641905  0.84471770     0.87100
C1406       C  0.03547112  0.85374744  0.85702441     0.79500
N1407       N  0.02846749  0.82126818  0.86572916    -0.78800
C1408       C  0.02407891  0.79805969  0.84161265     0.81900
N1409       N  0.52632835  0.80768321  0.81024971    -0.78800
C1410       C  0.02371262  0.83919497  0.80152776     0.82000
N1411       N  0.02789698  0.86301830  0.82504112    -0.80500
C1412       C  0.10568776  0.64934515  0.83139063     0.79500
N1413       N  0.11474584  0.65723832  0.86341795    -0.78800
C1414       C  0.09058685  0.66248943  0.88679564     0.81900
N1415       N  0.05878418  0.66071564  0.87793966    -0.78800
C1416       C  0.04955171  0.66139603  0.84648133     0.82000
N1417       N  0.07308109  0.65618926  0.82260366    -0.80500
C1418       C  0.32877940  0.60906341  0.65241337     0.79500
N1419       N  0.36134678  0.61779566  0.65942105    -0.78800
C1420       C  0.38472862  0.59349609  0.66386617     0.81900
N1421       N  0.37538173  0.56201336  0.66176124    -0.78800
C1422       C  0.34358118  0.55326466  0.66441043     0.82000
N1423       N  0.31950742  0.57703216  0.66069039    -0.80500
O1424       O  0.37128742  0.94148790  0.67946146    -0.75200
O1425       O  0.37044614  0.99859427  0.75582417    -0.75200
O1426       O  0.36813412  0.93292935  0.74564250    -0.75300
O1427       O  0.36791577  0.50731458  0.68962090    -0.75300
O1428       O  0.31225552  0.50846348  0.68947862    -0.75300
O1429       O  0.31248081  0.93119431  0.74539525    -0.75200
O1430       O  0.31479330  0.99797086  0.75458780    -0.75200
O1431       O  0.31562084  0.94173585  0.68009133    -0.75300
Ni1432     Ni  0.37149645  0.97017180  0.71755064     1.25400
Ni1433     Ni  0.31179239  0.96992165  0.71725467     1.25400
C1434       C  0.34349402  0.93228462  0.66727066     0.87000
C1435       C  0.34238929  0.00688465  0.76821613     0.86900
C1436       C  0.34049272  0.91899367  0.75408258     0.86900
C1437       C  0.34020456  0.52101937  0.68104878     0.87100
O1438       O  0.18011559  0.93757077  0.87488622    -0.75200
O1439       O  0.25528187  0.99819170  0.87374091    -0.75200
O1440       O  0.18759873  0.50383670  0.87230648    -0.75300
O1441       O  0.24808290  0.93211342  0.87231430    -0.75300
O1442       O  0.24896446  0.93163270  0.81723669    -0.75300
O1443       O  0.18613537  0.50438177  0.81723582    -0.75200
O1444       O  0.25226322  0.99873142  0.81874752    -0.75200
O1445       O  0.18224996  0.93696690  0.81986387    -0.75300
Ni1446     Ni  0.21775165  0.96787366  0.87542212     1.25400
Ni1447     Ni  0.21728206  0.96784697  0.81640832     1.25400
C1448       C  0.16844882  0.92802088  0.84713594     0.87000
C1449       C  0.26641786  0.00775137  0.84566571     0.86900
C1450       C  0.17750174  0.51668904  0.84498920     0.86900
C1451       C  0.25841389  0.91967093  0.84493378     0.87100
C1452       C  0.35471920  0.53625115  0.85557268     0.79500
N1453       N  0.36353371  0.52812478  0.82353071    -0.78800
C1454       C  0.33915776  0.52364474  0.80032088     0.81900
N1455       N  0.30725232  0.02589419  0.80945889    -0.78800
C1456       C  0.29828809  0.52548632  0.84098275     0.82000
N1457       N  0.32195014  0.53050107  0.86448449    -0.80500
C1458       C  0.15094088  0.60432942  0.83138897     0.79500
N1459       N  0.15946065  0.61386140  0.86296157    -0.78800
C1460       C  0.16248861  0.59021244  0.88708601     0.81900
N1461       N  0.15827242  0.55841387  0.87931404    -0.78800
C1462       C  0.15967045  0.54837401  0.84816200     0.82000
N1463       N  0.15601367  0.57136236  0.82375375    -0.80500
O1464       O  0.12427983  0.74485858  0.50759281    -0.75200
O1465       O  0.12249349  0.68816373  0.93052308    -0.75200
O1466       O  0.11998853  0.75402883  0.94085262    -0.75300
O1467       O  0.12081253  0.67907323  0.99715948    -0.75300
O1468       O  0.06513936  0.67844662  0.99844120    -0.75300
O1469       O  0.06432607  0.75518576  0.94165620    -0.75200
O1470       O  0.06687166  0.68848396  0.93276132    -0.75200
O1471       O  0.06863901  0.74492172  0.50724889    -0.75300
Ni1472     Ni  0.12395772  0.71650859  0.96892471     1.25400
Ni1473     Ni  0.06426339  0.71675548  0.97002746     1.25400
C1474       C  0.09656529  0.75394708  0.52018446     0.87000
C1475       C  0.09433250  0.67959190  0.91868551     0.86900
C1476       C  0.09207415  0.76758027  0.93250195     0.86900
C1477       C  0.09309311  0.66600524  0.00680287     0.87100
C1478       C  0.07832047  0.85537238  0.90454549     0.79500
N1479       N  0.11045406  0.86479381  0.91230190    -0.78800
C1480       C  0.13459686  0.84115835  0.91585470     0.81900
N1481       N  0.12627308  0.80940735  0.91326114    -0.78800
C1482       C  0.09473250  0.79971751  0.91549870     0.82000
N1483       N  0.06996831  0.82276914  0.91144622    -0.80500
O1484       O  0.00742110  0.74818762  0.62140138    -0.75200
O1485       O  0.43088408  0.69007692  0.62141414    -0.75200
O1486       O  0.49814326  0.68228842  0.61909875    -0.75300
O1487       O  0.44039546  0.75591290  0.61847378    -0.75300
O1488       O  0.44079270  0.75777794  0.56343014    -0.75300
O1489       O  0.49838134  0.68054178  0.56405863    -0.77000
O1490       O  0.43216605  0.69067062  0.56635199    -0.75200
O1491       O  0.00691493  0.74758010  0.56633863    -0.75300
Ni1492     Ni  0.46922956  0.71913861  0.62201850     1.25400
Ni1493     Ni  0.46955931  0.71913170  0.56298188     1.25400
C1494       C  0.01996643  0.75708126  0.59377160     0.87000
C1495       C  0.41859802  0.68139122  0.59373628     0.86900
C1496       C  0.50713544  0.66844547  0.59190456     0.86900
C1497       C  0.43194995  0.76996669  0.59115541     0.87100
C1498       C  0.40323319  0.85834532  0.58024210     0.79500
N1499       N  0.41142161  0.86734638  0.61225450    -0.78800
C1500       C  0.41684911  0.84314395  0.63547154     0.81900
N1501       N  0.41533532  0.81163446  0.62635916    -0.78800
C1502       C  0.41567847  0.80247680  0.59498847     0.82000
N1503       N  0.41001209  0.82591418  0.57123531    -0.80500
C1504       C  0.10783177  0.78580475  0.60675685     0.79500
N1505       N  0.11752303  0.77674111  0.57516153    -0.78800
C1506       C  0.09359615  0.77261333  0.55133533     0.81900
N1507       N  0.06171480  0.77662772  0.55947551    -0.78800
C1508       C  0.05179532  0.77512704  0.59070304     0.82000
N1509       N  0.07487562  0.77979248  0.61500747    -0.80500
O1510       O  0.18030320  0.56306801  0.99688994    -0.75200
O1511       O  0.25718650  0.56425071  0.93968156    -0.75200
O1512       O  0.24745304  0.56624253  0.50508616    -0.75300
O1513       O  0.19020674  0.56622139  0.93149008    -0.75300
O1514       O  0.18907615  0.62159496  0.93032098    -0.75300
O1515       O  0.24741675  0.62161534  0.50596961    -0.75200
O1516       O  0.25509644  0.61962373  0.93964448    -0.75200
O1517       O  0.18099521  0.61844727  0.99679659    -0.75300
Ni1518     Ni  0.21878297  0.56298039  0.96825290     1.25400
Ni1519     Ni  0.21806799  0.62239276  0.96821165     1.25400
C1520       C  0.16777712  0.59071019  0.00578772     0.87000
C1521       C  0.26913033  0.59226399  0.93100556     0.86900
C1522       C  0.25680435  0.59384101  0.51800823     0.86900
C1523       C  0.18068394  0.59368308  0.91818838     0.87100
C1524       C  0.35722759  0.57971805  0.90296794     0.79500
N1525       N  0.36691677  0.61179263  0.91099352    -0.78800
C1526       C  0.34304445  0.63577143  0.91578756     0.81900
N1527       N  0.31116674  0.62729492  0.91383386    -0.78800
C1528       C  0.30146481  0.59589847  0.91469271     0.82000
N1529       N  0.32451607  0.57157024  0.90979657    -0.80500
O1530       O  0.25605922  0.93900988  0.56539021    -0.75200
O1531       O  0.18171627  0.00060582  0.56690111    -0.75200
O1532       O  0.24926765  0.50533219  0.56705298    -0.75300
O1533       O  0.18842866  0.93451601  0.56838329    -0.75300
O1534       O  0.18925797  0.93208148  0.62339210    -0.75300
O1535       O  0.25029305  0.50703854  0.62209094    -0.75200
O1536       O  0.18387728  0.99950868  0.62193644    -0.75200
O1537       O  0.25563691  0.93963508  0.62045010    -0.75300
Ni1538     Ni  0.21883005  0.96982569  0.56500175     1.25400
Ni1539     Ni  0.21977787  0.96953661  0.62399849     1.25400
C1540       C  0.26840840  0.92983341  0.59304545     0.87000
C1541       C  0.17023360  0.00945022  0.59501128     0.86900
C1542       C  0.25912194  0.51875802  0.59400732     0.86900
C1543       C  0.17955606  0.92062908  0.59559233     0.87100
C1544       C  0.35621519  0.90137025  0.58121100     0.79500
N1545       N  0.36511165  0.90949323  0.61312137    -0.78800
C1546       C  0.34076491  0.91312351  0.63655004     0.81900
N1547       N  0.30905034  0.90893676  0.62787667    -0.78800
C1548       C  0.29981506  0.91119982  0.59640321     0.82000
N1549       N  0.32350974  0.90757699  0.57246566    -0.80500
C1550       C  0.28743923  0.60630795  0.60413007     0.79500
N1551       N  0.27981914  0.61499864  0.57199519    -0.78800
C1552       C  0.27563484  0.59072785  0.54891291     0.81900
N1553       N  0.27879270  0.55912551  0.55804850    -0.78800
C1554       C  0.27715522  0.55017941  0.58965675     0.82000
N1555       N  0.28114113  0.57386617  0.61317454    -0.80500
O1556       O  0.06483943  0.93820434  0.75846071    -0.75200
O1557       O  0.06534695  0.99620882  0.68216661    -0.75200
O1558       O  0.06855877  0.93017994  0.69201725    -0.75300
O1559       O  0.06662343  0.50399163  0.74866789    -0.75300
O1560       O  0.12227952  0.50577087  0.74956599    -0.75300
O1561       O  0.12422093  0.92937724  0.69240550    -0.75200
O1562       O  0.12097125  0.99636413  0.68397834    -0.75200
O1563       O  0.12050361  0.93900437  0.75784368    -0.75300
Ni1564     Ni  0.06435632  0.96709947  0.72027985     1.25400
Ni1565     Ni  0.12404253  0.96765180  0.72094999     1.25400
C1566       C  0.09275558  0.92966551  0.77097758     0.87000
C1567       C  0.09340579  0.00552080  0.67040060     0.86900
C1568       C  0.09647402  0.91686691  0.68345646     0.86900
C1569       C  0.09401740  0.51771669  0.75788286     0.87100
C1570       C  0.08011967  0.89928149  0.85771738     0.79500
N1571       N  0.07140433  0.90747566  0.82571997    -0.78800
C1572       C  0.09587035  0.91186689  0.80255359     0.81900
N1573       N  0.12759216  0.90904845  0.81166562    -0.78800
C1574       C  0.13653510  0.91041222  0.84321965     0.82000
N1575       N  0.11265173  0.90592566  0.86685685    -0.80500
O1576       O  0.00619878  0.62268522  0.74698286    -0.75200
O1577       O  0.42917822  0.62417778  0.69000456    -0.75200
O1578       O  0.43916633  0.62085579  0.75552017    -0.75300
O1579       O  0.49635316  0.62088870  0.68134267    -0.75300
O1580       O  0.49637038  0.56550740  0.68033000    -0.75300
O1581       O  0.43845282  0.56547815  0.75625602    -0.75200
O1582       O  0.43023139  0.56880964  0.68991489    -0.75200
O1583       O  0.00449221  0.56733268  0.74656750    -0.75300
Ni1584     Ni  0.46778700  0.62438081  0.71840426     1.25400
Ni1585     Ni  0.46741326  0.56497343  0.71826747     1.25400
C1586       C  0.01831383  0.59471087  0.75553196     0.87000
C1587       C  0.41676262  0.59649917  0.68112991     0.86900
C1588       C  0.42967196  0.59319362  0.76856972     0.86900
C1589       C  0.50541027  0.59325459  0.66812727     0.87100
C1590       C  0.40021792  0.58058311  0.85538724     0.79500
N1591       N  0.40644293  0.61308460  0.86385563    -0.78800
C1592       C  0.40974424  0.63660470  0.83979579     0.81900
N1593       N  0.40717804  0.62751145  0.80840498    -0.78800
C1594       C  0.41116167  0.59595576  0.79974991     0.82000
N1595       N  0.40804416  0.57173870  0.82335013    -0.80500
C1596       C  0.10633409  0.60539268  0.78513817     0.79500
N1597       N  0.07417968  0.61485158  0.77706054    -0.78800
C1598       C  0.05019195  0.59103942  0.77290115     0.81900
N1599       N  0.05861606  0.55927128  0.77570388    -0.78800
C1600       C  0.09022096  0.54966089  0.77457905     0.82000
N1601       N  0.11456078  0.57273837  0.77895978    -0.80500
C1602       C  0.03530620  0.58020729  0.58164090     0.79500
N1603       N  0.02733540  0.57155614  0.61370997    -0.78800
C1604       C  0.02314356  0.59590575  0.63674460     0.81900
N1605       N  0.52618535  0.62763715  0.62736315    -0.78800
C1606       C  0.02417849  0.63631021  0.59596710     0.82000
N1607       N  0.02853713  0.61258201  0.57236405    -0.80500
C1608       C  0.08234998  0.53757800  0.58382949     0.79500
N1609       N  0.11526524  0.53216500  0.57545787    -0.78800
C1610       C  0.13853999  0.52713353  0.59933131     0.81900
N1611       N  0.12894173  0.02744001  0.63078313    -0.78800
C1612       C  0.09693063  0.52402751  0.63918838     0.82000
N1613       N  0.07295611  0.52882573  0.61561147    -0.80500
C1614       C  0.07993328  0.57869524  0.53506997     0.79500
N1615       N  0.11206941  0.56944179  0.52677350    -0.78800
C1616       C  0.13614240  0.59338482  0.52404092     0.81900
N1617       N  0.12753423  0.62513458  0.02772988    -0.78800
C1618       C  0.09605418  0.63444826  0.52521225     0.82000
N1619       N  0.07148770  0.61121507  0.52842896    -0.80500
C1620       C  0.12985071  0.62814826  0.80766754    -0.03300
C1621       C  0.30608182  0.63125258  0.62839058    -0.03300
C1622       C  0.30603647  0.80875186  0.80712209    -0.03300
C1623       C  0.13160493  0.80765140  0.63012072    -0.03300
C1624       C  0.21842497  0.71808024  0.71984967    -0.03300
C1625       C  0.14080820  0.75802687  0.66959072    -0.27100
C1626       C  0.15551063  0.78433752  0.65159952    -0.15200
C1627       C  0.19110760  0.78691966  0.65526604     0.35500
C1628       C  0.20918458  0.76469083  0.67592975    -0.26500
C1629       C  0.19431326  0.73972563  0.69589023    -0.15800
C1630       C  0.15891423  0.73555043  0.69001511     0.36600
N1631       N  0.14008852  0.70732731  0.70092543    -0.90000
H1632       H  0.11417834  0.75407059  0.66713936     0.17700
H1633       H  0.23589868  0.76810509  0.67737036     0.17700
N1634       N  0.21053732  0.81233133  0.63972068    -0.89000
H1635       H  0.13124751  0.71047374  0.72488444     0.35000
H1636       H  0.15286328  0.68511469  0.69722589     0.40100
H1637       H  0.20211502  0.83552176  0.64757102     0.39800
H1638       H  0.20931756  0.80983269  0.61409617     0.34600
C1639       C  0.28476462  0.75057030  0.78666683    -0.27100
C1640       C  0.28122006  0.78561598  0.78647046    -0.15200
C1641       C  0.25412235  0.79758695  0.76662155     0.35500
C1642       C  0.23475317  0.77590290  0.74676850    -0.26500
C1643       C  0.24010207  0.74109261  0.74455227    -0.15800
C1644       C  0.26501847  0.72861809  0.76716272     0.36600
N1645       N  0.27251742  0.69383365  0.77065208    -0.90000
H1646       H  0.30378882  0.73925356  0.80189350     0.17700
H1647       H  0.21408479  0.78718027  0.73388394     0.17700
N1648       N  0.24381191  0.83159452  0.76672213    -0.89000
H1649       H  0.29751794  0.69031974  0.76419879     0.35000
H1650       H  0.25895745  0.67921438  0.75443720     0.40100
H1651       H  0.26341826  0.84673071  0.75910890     0.39800
H1652       H  0.23552371  0.83794790  0.79031716     0.34600
C1653       C  0.22767132  0.67454003  0.67264094    -0.27100
C1654       C  0.24233652  0.69758380  0.69462860    -0.15200
C1655       C  0.27791032  0.70121123  0.69041948     0.35500
C1656       C  0.29654952  0.67893944  0.66993569    -0.26500
C1657       C  0.28188606  0.65425891  0.64990650    -0.15800
C1658       C  0.24602339  0.65309040  0.65149202     0.36600
N1659       N  0.22641533  0.63021379  0.63284610    -0.90000
H1660       H  0.20085338  0.67206454  0.67258017     0.17700
H1661       H  0.32341396  0.68171491  0.66880961     0.17700
N1662       N  0.29558074  0.72842621  0.70509484    -0.89000
H1663       H  0.23275368  0.60595714  0.63947271     0.35000
H1664       H  0.22976022  0.63466738  0.60765319     0.40100
H1665       H  0.28793433  0.75018297  0.69322699     0.39800
H1666       H  0.32131022  0.72651130  0.70112308     0.34600
C1667       C  0.15396421  0.68605943  0.78819558    -0.27100
C1668       C  0.15409204  0.65084505  0.78552613    -0.15200
C1669       C  0.17781013  0.63810833  0.76204511     0.35500
C1670       C  0.19839068  0.65936342  0.74283081    -0.26500
C1671       C  0.19674805  0.69447205  0.74387082    -0.15800
C1672       C  0.17464843  0.70733733  0.76846286     0.36600
N1673       N  0.17164125  0.74251313  0.77257758    -0.90000
H1674       H  0.13732145  0.69790402  0.80560536     0.17700
H1675       H  0.21620373  0.64723389  0.72696050     0.17700
N1676       N  0.18229852  0.60343491  0.75613145    -0.89000
H1677       H  0.17753535  0.74817740  0.79706526     0.35000
H1678       H  0.14677460  0.74926632  0.76852457     0.40100
H1679       H  0.16057507  0.59342628  0.74625050     0.39800
H1680       H  0.18973068  0.59147112  0.77770616     0.34600
C1681       C  0.47954590  0.92550390  0.92314193    -0.27100
C1682       C  0.99479657  0.94907140  0.94429376    -0.15200
C1683       C  0.03081717  0.95044575  0.94101351     0.35500
C1684       C  0.04846354  0.92678382  0.92162767    -0.26500
C1685       C  0.03292494  0.90232503  0.90210515    -0.15800
C1686       C  0.99728063  0.90274814  0.90282379     0.36600
N1687       N  0.47867713  0.87848486  0.88501700    -0.90000
H1688       H  0.45255295  0.92375652  0.92337538     0.17700
H1689       H  0.07544464  0.92854268  0.92090692     0.17700
N1690       N  0.05121727  0.97680647  0.95350577    -0.89000
H1691       H  0.46257542  0.89128318  0.86914555     0.35000
H1692       H  0.96348453  0.86568766  0.90014642     0.40100
H1693       H  0.06366528  0.96908663  0.97484524     0.39800
H1694       H  0.03885241  0.99933084  0.95606837     0.34600
C1695       C  0.43151331  0.89204010  0.51747917    -0.27100
C1696       C  0.40475889  0.90594412  0.53566333    -0.15200
C1697       C  0.40185846  0.94128135  0.53311577     0.35500
C1698       C  0.42366182  0.96025082  0.51237209    -0.26500
C1699       C  0.44901096  0.94611299  0.49222621    -0.15800
C1700       C  0.45407510  0.91121908  0.49772586     0.36600
N1701       N  0.48337510  0.89485658  0.98589387    -0.90000
H1702       H  0.43596574  0.86558682  0.51952387     0.17700
H1703       H  0.41994852  0.98688023  0.51131600     0.17700
N1704       N  0.37653034  0.95875846  0.55095893    -0.89000
H1705       H  0.47592163  0.87453005  0.97168967     0.35000
H1706       H  0.49668730  0.88575031  0.00619244     0.40100
H1707       H  0.36163259  0.97153405  0.53395600     0.39800
H1708       H  0.38816248  0.97622776  0.56613033     0.34600
C1709       C  0.43794716  0.53531205  0.90057202    -0.27100
C1710       C  0.40262417  0.53198312  0.90052668    -0.15200
C1711       C  0.39038962  0.50538506  0.92099154     0.35500
C1712       C  0.41203664  0.48604938  0.94117563    -0.26500
C1713       C  0.44698433  0.49124405  0.94341450    -0.15800
C1714       C  0.45959541  0.51530010  0.92053397     0.36600
N1715       N  0.49481299  0.52005871  0.91745116    -0.90000
H1716       H  0.44957421  0.55389643  0.88502932     0.17700
H1717       H  0.40070799  0.96552584  0.95440815     0.17700
N1718       N  0.35609970  0.49557756  0.92133072    -0.89000
H1719       H  0.50021663  0.54491828  0.92248825     0.35000
H1720       H  0.50184060  0.01609624  0.89381005     0.40100
H1721       H  0.34963314  0.48645970  0.89813047     0.39800
H1722       H  0.34110326  0.51550609  0.92819921     0.34600
C1723       C  0.00812334  0.54697530  0.51901528    -0.27100
C1724       C  0.03421151  0.53244730  0.53774536    -0.15200
C1725       C  0.03668672  0.49693348  0.53490365     0.35500
C1726       C  0.51451980  0.97849650  0.51465383    -0.26500
C1727       C  0.99069677  0.49354061  0.49337521    -0.15800
C1728       C  0.98589462  0.52834299  0.99870974     0.36600
N1729       N  0.95735370  0.54513304  0.98554173    -0.90000
H1730       H  0.00386738  0.57345267  0.02106472     0.17700
H1731       H  0.51787179  0.95182989  0.51345830     0.17700
N1732       N  0.06242232  0.47789315  0.55041309    -0.89000
H1733       H  0.96563893  0.56551093  0.97170727     0.35000
H1734       H  0.94324745  0.55420939  0.00531472     0.40100
H1735       H  0.05985277  0.47907198  0.57601300     0.39800
H1736       H  0.08555184  0.98641365  0.54278580     0.34600
C1737       C  0.55779048  0.05625955  0.05917111    -0.03300
C1738       C  0.87940702  0.05621012  0.37909815    -0.03300
C1739       C  0.88117662  0.38227995  0.05688947    -0.03300
C1740       C  0.55595010  0.37787821  0.38081697    -0.03300
C1741       C  0.97070762  0.47034628  0.46807489    -0.03300
C1742       C  0.82886837  0.33107874  0.28344665     0.79500
N1743       N  0.86148810  0.32219216  0.27656841    -0.78800
C1744       C  0.88510832  0.34627857  0.27208620     0.81900
N1745       N  0.87594760  0.37787214  0.27358530    -0.78800
C1746       C  0.84419132  0.38683089  0.27133316     0.82000
N1747       N  0.82001788  0.36335159  0.27574594    -0.80500
C1748       C  0.78566750  0.33269669  0.33109287     0.79500
N1749       N  0.77683723  0.32306002  0.36267923    -0.78800
C1750       C  0.77407592  0.34664202  0.38676920     0.81900
N1751       N  0.77882338  0.37842516  0.37888300    -0.78800
C1752       C  0.77704097  0.38859518  0.34770889     0.82000
N1753       N  0.78085612  0.36573619  0.32331030    -0.80500
C1754       C  0.65071886  0.33276162  0.10585633     0.79500
N1755       N  0.65844995  0.32407001  0.07379714    -0.78800
C1756       C  0.66360462  0.34824488  0.05070885     0.81900
N1757       N  0.66174188  0.37983420  0.05979098    -0.78800
C1758       C  0.66246349  0.38880541  0.09132513     0.82000
N1759       N  0.65722848  0.36518160  0.11493232    -0.80500
C1760       C  0.82993199  0.15358265  0.10540497     0.79500
N1761       N  0.86264700  0.15993054  0.11418038    -0.78800
C1762       C  0.88634002  0.16410413  0.09020573     0.81900
N1763       N  0.87719477  0.16215696  0.05882936    -0.78800
C1764       C  0.84549328  0.16558088  0.05001123     0.82000
N1765       N  0.82105612  0.16181330  0.07341557    -0.80500
O1766       O  0.67911233  0.37302075  0.44042924    -0.75200
O1767       O  0.75746659  0.37511740  0.49576972    -0.75200
O1768       O  0.74601899  0.37101280  0.43071919    -0.75300
O1769       O  0.69008639  0.37190272  0.00525889    -0.75300
O1770       O  0.69032200  0.31655663  0.00757188    -0.75300
O1771       O  0.74721196  0.31565234  0.43070884    -0.75200
O1772       O  0.75643505  0.31977946  0.49690963    -0.75200
O1773       O  0.68118013  0.31767278  0.44162555    -0.75300
Ni1774     Ni  0.71819227  0.37479975  0.46807048     1.25400
Ni1775     Ni  0.71882052  0.31542752  0.46932127     1.25400
C1776       C  0.66703301  0.34488108  0.43255267     0.87000
C1777       C  0.77021218  0.34751830  0.50476006     0.86900
C1778       C  0.75556210  0.34340591  0.41790429     0.86900
C1779       C  0.68123574  0.34454165  0.01919012     0.87100
O1780       O  0.81601625  0.24831142  0.42928701    -0.75200
O1781       O  0.81503553  0.19230358  0.00599695    -0.75200
O1782       O  0.81899796  0.25791344  0.49541544    -0.75300
O1783       O  0.81909854  0.18227287  0.44038969    -0.75300
O1784       O  0.87471605  0.18069697  0.44037733    -0.75300
O1785       O  0.87464228  0.25892559  0.49549708    -0.75200
O1786       O  0.87070478  0.19233571  0.00525779    -0.75200
O1787       O  0.87167434  0.24783243  0.43006255    -0.75300
Ni1788     Ni  0.81541441  0.22017299  0.46782131     1.25400
Ni1789     Ni  0.87511279  0.21992186  0.46783974     1.25400
C1790       C  0.84387534  0.25714385  0.41691460     0.87000
C1791       C  0.84278592  0.18345038  0.01848236     0.86900
C1792       C  0.84676486  0.27148977  0.50409554     0.86900
C1793       C  0.84677995  0.16808921  0.43218981     0.87100
C1794       C  0.85869610  0.35946428  0.03321505     0.79500
N1795       N  0.82635236  0.36859200  0.02521926    -0.78800
C1796       C  0.80265958  0.34453258  0.02095920     0.81900
N1797       N  0.81192128  0.31277098  0.52314605    -0.78800
C1798       C  0.84335816  0.30373725  0.02115865     0.82000
N1799       N  0.86767194  0.32706801  0.02600813    -0.80500
C1800       C  0.83028642  0.28728284  0.33030845     0.79500
N1801       N  0.82188593  0.27990643  0.36265386    -0.78800
C1802       C  0.84660449  0.27530747  0.38544902     0.81900
N1803       N  0.87812992  0.27776288  0.37576953    -0.78800
C1804       C  0.88645491  0.27473578  0.34414508     0.82000
N1805       N  0.86237964  0.27912816  0.32065649    -0.80500
C1806       C  0.60885586  0.32949664  0.15382158     0.79500
N1807       N  0.57626760  0.32061217  0.16063948    -0.78800
C1808       C  0.55281181  0.34485437  0.16484010     0.81900
N1809       N  0.56212691  0.37638360  0.16267678    -0.78800
C1810       C  0.59385163  0.38512949  0.16600364     0.82000
N1811       N  0.61802860  0.36144289  0.16233798    -0.80500
O1812       O  0.94149500  0.37363564  0.18034683    -0.75200
O1813       O  0.99757978  0.37160062  0.25788453    -0.75200
O1814       O  0.50765515  0.36935086  0.19149648    -0.75300
O1815       O  0.93158140  0.37016763  0.24685532    -0.75300
O1816       O  0.92970441  0.31482560  0.24691141    -0.75300
O1817       O  0.50793080  0.31399230  0.19050902    -0.75200
O1818       O  0.99678121  0.31627052  0.25596762    -0.75200
O1819       O  0.94056677  0.31830006  0.18145528    -0.75300
Ni1820     Ni  0.96949828  0.37326036  0.21922194     1.25400
Ni1821     Ni  0.96858636  0.31389898  0.21872816     1.25400
C1822       C  0.93255636  0.34608450  0.16772622     0.87000
C1823       C  0.00600334  0.34348310  0.26978903     0.86900
C1824       C  0.52078656  0.34173395  0.18220775     0.86900
C1825       C  0.91752496  0.34273202  0.25550581     0.87100
O1826       O  0.92988401  0.24655763  0.31311161    -0.75200
O1827       O  0.50599297  0.18728163  0.31478112    -0.75200
O1828       O  0.93848894  0.18050901  0.31561076    -0.75300
O1829       O  0.99723843  0.25336542  0.31700682    -0.75300
O1830       O  0.99687050  0.25419676  0.37208077    -0.75300
O1831       O  0.93678822  0.17942989  0.37069202    -0.75200
O1832       O  0.50325284  0.18697480  0.36981533    -0.75200
O1833       O  0.93067109  0.24628617  0.36817370    -0.75300
Ni1834     Ni  0.96795140  0.21695466  0.31305715     1.25400
Ni1835     Ni  0.96683439  0.21671136  0.37211505     1.25400
C1836       C  0.91764025  0.25579772  0.34070752     0.87000
C1837       C  0.51750009  0.17814788  0.34273808     0.86900
C1838       C  0.92825043  0.16747631  0.34285396     0.86900
C1839       C  0.00623152  0.26650349  0.34451800     0.87100
C1840       C  0.53582878  0.35366584  0.35690853     0.79500
N1841       N  0.52897304  0.32116098  0.36557693    -0.78800
C1842       C  0.52444911  0.29800077  0.34146518     0.81900
N1843       N  0.02577081  0.30777920  0.30998450    -0.78800
C1844       C  0.52392669  0.33921694  0.30140004     0.82000
N1845       N  0.52817787  0.36299041  0.32494969    -0.80500
C1846       C  0.60580839  0.14925217  0.33176982     0.79500
N1847       N  0.61488463  0.15726601  0.36375655    -0.78800
C1848       C  0.59071140  0.16245431  0.38713010     0.81900
N1849       N  0.55891385  0.16062490  0.37828392    -0.78800
C1850       C  0.54967696  0.16121729  0.34683341     0.82000
N1851       N  0.57319321  0.15597505  0.32297985    -0.80500
C1852       C  0.82839875  0.10958721  0.15270976     0.79500
N1853       N  0.86104515  0.11819605  0.15946195    -0.78800
C1854       C  0.88436118  0.09380159  0.16371807     0.81900
N1855       N  0.87486702  0.06235730  0.16165274    -0.78800
C1856       C  0.84304818  0.05373215  0.16458441     0.82000
N1857       N  0.81903873  0.07762146  0.16116217    -0.80500
O1858       O  0.87130719  0.44169499  0.17953750    -0.75200
O1859       O  0.87011019  0.49843369  0.25611399    -0.75200
O1860       O  0.86824063  0.43277967  0.24577157    -0.75300
O1861       O  0.86743656  0.00773717  0.18965371    -0.75300
O1862       O  0.81177501  0.00872659  0.18942896    -0.75300
O1863       O  0.81258603  0.43098132  0.24574249    -0.75200
O1864       O  0.81445188  0.49774548  0.25480569    -0.75200
O1865       O  0.81564816  0.44144916  0.18031991    -0.75300
Ni1866     Ni  0.87132349  0.47017829  0.21778850     1.25400
Ni1867     Ni  0.81162175  0.46964436  0.21751445     1.25400
C1868       C  0.84357271  0.43232853  0.16734261     0.87000
C1869       C  0.84202714  0.50677567  0.26838654     0.86900
C1870       C  0.84064691  0.41887642  0.25442056     0.86900
C1871       C  0.83970141  0.02141436  0.18111293     0.87100
O1872       O  0.68009870  0.43780209  0.37493624    -0.75200
O1873       O  0.75517222  0.49850350  0.37374468    -0.75200
O1874       O  0.68746426  0.00349284  0.37265537    -0.75300
O1875       O  0.74801513  0.43231669  0.37216996    -0.75300
O1876       O  0.74874523  0.43188898  0.31709337    -0.75300
O1877       O  0.68582397  0.00415727  0.31759303    -0.75200
O1878       O  0.75205799  0.49908744  0.31875703    -0.75200
O1879       O  0.68214949  0.43731475  0.31990594    -0.75300
Ni1880     Ni  0.71769443  0.46812250  0.37545452     1.25400
Ni1881     Ni  0.71711764  0.46817380  0.31643950     1.25400
C1882       C  0.66841651  0.42830165  0.34717939     0.87000
C1883       C  0.76621539  0.50813928  0.34565728     0.86900
C1884       C  0.67714308  0.01630872  0.34540988     0.86900
C1885       C  0.75812407  0.41976644  0.34474429     0.87100
C1886       C  0.85461098  0.03613139  0.35546262     0.79500
N1887       N  0.86322232  0.02826085  0.32332696    -0.78800
C1888       C  0.83873999  0.02400195  0.30020760     0.81900
N1889       N  0.80694031  0.52639297  0.30938778    -0.78800
C1890       C  0.79807942  0.02552678  0.34107679     0.82000
N1891       N  0.82188172  0.03032420  0.36449640    -0.80500
C1892       C  0.65043549  0.10383899  0.33205882     0.79500
N1893       N  0.65909559  0.11326661  0.36362388    -0.78800
C1894       C  0.66211071  0.08957486  0.38771177     0.81900
N1895       N  0.65771121  0.05779697  0.37991897    -0.78800
C1896       C  0.65899697  0.04781298  0.34872330     0.82000
N1897       N  0.65523673  0.07084607  0.32436230    -0.80500
O1898       O  0.62452653  0.24474996  0.00724236    -0.75200
O1899       O  0.62256853  0.18807952  0.43085172    -0.75200
O1900       O  0.61990916  0.25389593  0.44114145    -0.75300
O1901       O  0.62093514  0.17901278  0.49747934    -0.75300
O1902       O  0.56526052  0.17835529  0.49880715    -0.75300
O1903       O  0.56424744  0.25504268  0.44192224    -0.75200
O1904       O  0.56694237  0.18830690  0.43311751    -0.75200
O1905       O  0.56888686  0.24482364  0.00699103    -0.75300
Ni1906     Ni  0.62398365  0.21642402  0.46920571     1.25400
Ni1907     Ni  0.56428099  0.21661976  0.47032708     1.25400
C1908       C  0.59683700  0.25380771  0.01990779     0.87000
C1909       C  0.59441933  0.17948784  0.41902693     0.86900
C1910       C  0.59199954  0.26747428  0.43282474     0.86900
C1911       C  0.59323282  0.16592918  0.50714327     0.87100
C1912       C  0.57861343  0.35530293  0.40449058     0.79500
N1913       N  0.61083560  0.36462941  0.41209008    -0.78800
C1914       C  0.63485137  0.34091178  0.41599398     0.81900
N1915       N  0.62635015  0.30919939  0.41374008    -0.78800
C1916       C  0.59476202  0.29965258  0.41590523     0.82000
N1917       N  0.57009692  0.32278721  0.41166533    -0.80500
O1918       O  0.50770287  0.24826704  0.12122772    -0.75200
O1919       O  0.93061074  0.19039728  0.12114745    -0.75200
O1920       O  0.99782358  0.18234161  0.11891146    -0.75300
O1921       O  0.94040971  0.25620332  0.11822094    -0.75300
O1922       O  0.94080294  0.25798594  0.06317492    -0.75300
O1923       O  0.99825627  0.18065193  0.06387095    -0.77000
O1924       O  0.93199757  0.19088407  0.06608740    -0.75200
O1925       O  0.50724464  0.24742550  0.06616291    -0.75300
Ni1926     Ni  0.96907155  0.21930224  0.12180533     1.25400
Ni1927     Ni  0.96950072  0.21928775  0.06276883     1.25400
C1928       C  0.52026721  0.25702042  0.09356827     0.87000
C1929       C  0.91835959  0.18167115  0.09347010     0.86900
C1930       C  0.00693215  0.16854205  0.09173349     0.86900
C1931       C  0.93194062  0.27020062  0.09088390     0.87100
C1932       C  0.90324949  0.35852086  0.07999203     0.79500
N1933       N  0.91113234  0.36736049  0.11210527    -0.78800
C1934       C  0.91618340  0.34308275  0.13531072     0.81900
N1935       N  0.91455171  0.31159601  0.12609903    -0.78800
C1936       C  0.91543889  0.30259928  0.09466186     0.82000
N1937       N  0.91017028  0.32615022  0.07091489    -0.80500
C1938       C  0.60805944  0.28569180  0.10650870     0.79500
N1939       N  0.61779822  0.27653515  0.07494867    -0.78800
C1940       C  0.59388829  0.27240450  0.05110692     0.81900
N1941       N  0.56201047  0.27644149  0.05923345    -0.78800
C1942       C  0.55207607  0.27501019  0.09045620     0.82000
N1943       N  0.57512258  0.27969062  0.11476096    -0.80500
O1944       O  0.68041998  0.06261701  0.49723207    -0.75200
O1945       O  0.75738877  0.06363600  0.44006419    -0.75200
O1946       O  0.74772474  0.06644854  0.00487423    -0.75300
O1947       O  0.69032823  0.06554024  0.43184371    -0.75300
O1948       O  0.68900092  0.12091253  0.43077210    -0.75300
O1949       O  0.74748777  0.12182216  0.00592622    -0.75200
O1950       O  0.75508277  0.11899821  0.43974222    -0.75200
O1951       O  0.68130823  0.11799256  0.49722582    -0.75300
Ni1952     Ni  0.71894611  0.06241483  0.46862060     1.25400
Ni1953     Ni  0.71822986  0.12182115  0.46847820     1.25400
C1954       C  0.66794015  0.09029930  0.50609824     0.87000
C1955       C  0.76925255  0.09165628  0.43128585     0.86900
C1956       C  0.75691098  0.09404575  0.01791328     0.86900
C1957       C  0.68060122  0.09299049  0.41866057     0.87100
C1958       C  0.85738230  0.07942653  0.40293609     0.79500
N1959       N  0.86708029  0.11150569  0.41098223    -0.78800
C1960       C  0.84319026  0.13537764  0.41621618     0.81900
N1961       N  0.81133415  0.12681280  0.41457566    -0.78800
C1962       C  0.80166916  0.09541348  0.41515879     0.82000
N1963       N  0.82473121  0.07117002  0.40995654    -0.80500
O1964       O  0.75638825  0.43923693  0.06521969    -0.75200
O1965       O  0.68182252  0.50048671  0.06662403    -0.75200
O1966       O  0.74942966  0.00549568  0.06697947    -0.75300
O1967       O  0.68885813  0.43447156  0.06825186    -0.75300
O1968       O  0.68963015  0.43211793  0.12326473    -0.75300
O1969       O  0.75065081  0.00718750  0.12201340    -0.75200
O1970       O  0.68404207  0.49950083  0.12165989    -0.75200
O1971       O  0.75591010  0.43987125  0.12028670    -0.75300
Ni1972     Ni  0.71908642  0.46989904  0.06478769     1.25400
Ni1973     Ni  0.72002804  0.46966421  0.12379187     1.25400
C1974       C  0.76867768  0.43006535  0.09289354     0.87000
C1975       C  0.67028653  0.50926947  0.09472801     0.86900
C1976       C  0.75944276  0.01887295  0.09389328     0.86900
C1977       C  0.68000714  0.42059016  0.09547443     0.87100
C1978       C  0.85634062  0.40164007  0.08105830     0.79500
N1979       N  0.86527210  0.40982564  0.11297139    -0.78800
C1980       C  0.84092460  0.41338472  0.13643689     0.81900
N1981       N  0.80923071  0.40915748  0.12774892    -0.78800
C1982       C  0.80000428  0.41142283  0.09627495     0.82000
N1983       N  0.82365880  0.40782507  0.07233260    -0.80500
C1984       C  0.78745251  0.10643097  0.10409057     0.79500
N1985       N  0.77952510  0.11517385  0.07205058    -0.78800
C1986       C  0.77559438  0.09093477  0.04887652     0.81900
N1987       N  0.77896983  0.05930928  0.05789387    -0.78800
C1988       C  0.77754823  0.05025326  0.08947831     0.82000
N1989       N  0.78161112  0.07387840  0.11301426    -0.80500
O1990       O  0.56491855  0.43827872  0.25838654    -0.75200
O1991       O  0.56548300  0.49628256  0.18215354    -0.75200
O1992       O  0.56882726  0.43026132  0.19194076    -0.75300
O1993       O  0.56701464  0.00409656  0.24850194    -0.75300
O1994       O  0.62267190  0.00590400  0.24922747    -0.75300
O1995       O  0.62448397  0.42947268  0.19240029    -0.75200
O1996       O  0.62111078  0.49648081  0.18398740    -0.75200
O1997       O  0.62058224  0.43913113  0.25783445    -0.75300
Ni1998     Ni  0.56449575  0.46717188  0.22022479     1.25400
Ni1999     Ni  0.62418400  0.46776844  0.22094769     1.25400
C2000       C  0.59282208  0.42978959  0.27094948     0.87000
C2001       C  0.59353505  0.50559630  0.17039878     0.86900
C2002       C  0.59675844  0.41694053  0.18341584     0.86900
C2003       C  0.59442712  0.01793533  0.25748321     0.87100
C2004       C  0.58022163  0.39935057  0.35771072     0.79500
N2005       N  0.57147000  0.40759146  0.32572387    -0.78800
C2006       C  0.59592634  0.41205837  0.30256255     0.81900
N2007       N  0.62763728  0.40932045  0.31168967    -0.78800
C2008       C  0.63656761  0.41065554  0.34324371     0.82000
N2009       N  0.61271566  0.40607061  0.36687317    -0.80500
O2010       O  0.50612954  0.12320389  0.24694277    -0.75200
O2011       O  0.92895444  0.12432566  0.18975780    -0.75200
O2012       O  0.93882483  0.12078426  0.25527098    -0.75300
O2013       O  0.99616422  0.12107583  0.18120630    -0.75300
O2014       O  0.99615026  0.06569421  0.18003781    -0.75300
O2015       O  0.93812705  0.06540707  0.25585269    -0.75200
O2016       O  0.92997216  0.06895730  0.18948477    -0.75200
O2017       O  0.50451367  0.06785787  0.24653520    -0.75300
Ni2018     Ni  0.96752025  0.12444632  0.21821668     1.25400
Ni2019     Ni  0.96713904  0.06504069  0.21789671     1.25400
C2020       C  0.51838407  0.09524995  0.25538972     0.87000
C2021       C  0.91649954  0.09668628  0.18081842     0.86900
C2022       C  0.92935138  0.09308279  0.26825802     0.86900
C2023       C  0.00525179  0.09346917  0.16795901     0.87100
C2024       C  0.90025396  0.08033271  0.35519955     0.79500
N2025       N  0.90648066  0.11283137  0.36366394    -0.78800
C2026       C  0.90970066  0.13636410  0.33960125     0.81900
N2027       N  0.90694300  0.12730738  0.30821389    -0.78800
C2028       C  0.91092298  0.09576326  0.29950690     0.82000
N2029       N  0.90798227  0.07152436  0.32311892    -0.80500
C2030       C  0.60664045  0.10569300  0.28503543     0.79500
N2031       N  0.57446811  0.11524836  0.27699127    -0.78800
C2032       C  0.55050807  0.09148227  0.27238183     0.81900
N2033       N  0.55900192  0.05971195  0.27465743    -0.78800
C2034       C  0.59058895  0.05008273  0.27378205     0.82000
N2035       N  0.61490771  0.07311104  0.27850996    -0.80500
C2036       C  0.53574408  0.08036536  0.08176604     0.79500
N2037       N  0.52768550  0.07176628  0.11383638    -0.78800
C2038       C  0.52356190  0.09614813  0.13687151     0.81900
N2039       N  0.02610391  0.12786542  0.12725538    -0.78800
C2040       C  0.52479776  0.13651040  0.09608011     0.82000
N2041       N  0.52912000  0.11276019  0.07249341    -0.80500
C2042       C  0.58259680  0.03761302  0.08384730     0.79500
N2043       N  0.61549633  0.03221159  0.07547416    -0.78800
C2044       C  0.63880495  0.02744215  0.09935207     0.81900
N2045       N  0.62899886  0.52710470  0.13056123    -0.78800
C2046       C  0.59723177  0.02433524  0.13921761     0.82000
N2047       N  0.57323668  0.02893982  0.11563963    -0.80500
C2048       C  0.58018757  0.07862096  0.03499079     0.79500
N2049       N  0.61238237  0.06942531  0.02680706    -0.78800
C2050       C  0.63640143  0.09341990  0.02399521     0.81900
N2051       N  0.62767092  0.12489115  0.52778704    -0.78800
C2052       C  0.59620737  0.13437187  0.02492054     0.82000
N2053       N  0.57167715  0.11108897  0.02816207    -0.80500
C2054       C  0.62999911  0.12804600  0.30816134    -0.03300
C2055       C  0.80584710  0.13152874  0.12837950    -0.03300
C2056       C  0.80581616  0.30857099  0.30699851    -0.03300
C2057       C  0.63173256  0.30763215  0.12981789    -0.03300
C2058       C  0.71793007  0.21792257  0.21959726    -0.03300
C2059       C  0.64048726  0.25844988  0.16986068    -0.27100
C2060       C  0.65547444  0.28426364  0.15135758    -0.15200
C2061       C  0.69117980  0.28609955  0.15434331     0.35500
C2062       C  0.70905339  0.26408434  0.17538370    -0.26500
C2063       C  0.69391530  0.23956888  0.19570466    -0.15800
C2064       C  0.65846229  0.23578446  0.19017449     0.36600
N2065       N  0.63956195  0.20758228  0.20102063    -0.90000
H2066       H  0.61377020  0.25490036  0.16771850     0.17700
H2067       H  0.73590119  0.26700528  0.17656447     0.17700
N2068       N  0.71100052  0.31021548  0.13730743    -0.89000
H2069       H  0.63042300  0.21086446  0.22485160     0.35000
H2070       H  0.65248972  0.18539185  0.19769002     0.40100
H2071       H  0.70368078  0.33397764  0.14448991     0.39800
H2072       H  0.70885873  0.30678405  0.11184800     0.34600
C2073       C  0.78519924  0.25052606  0.28546877    -0.27100
C2074       C  0.78122267  0.28552717  0.28589487    -0.15200
C2075       C  0.75402988  0.29749898  0.26614532     0.35500
C2076       C  0.73457988  0.27581821  0.24630324    -0.26500
C2077       C  0.74001888  0.24101608  0.24388926    -0.15800
C2078       C  0.76555281  0.22861090  0.26582983     0.36600
N2079       N  0.77349604  0.19387953  0.26879238    -0.90000
H2080       H  0.80451007  0.23920423  0.30033626     0.17700
H2081       H  0.71380811  0.28707252  0.23354093     0.17700
N2082       N  0.74375829  0.33151628  0.26628755    -0.89000
H2083       H  0.79851804  0.19071325  0.26201941     0.35000
H2084       H  0.75994562  0.17933172  0.25267664     0.40100
H2085       H  0.76345716  0.34663883  0.25886250     0.39800
H2086       H  0.73533439  0.33779090  0.28985651     0.34600
C2087       C  0.72705002  0.17287516  0.17367335    -0.27100
C2088       C  0.74142054  0.19738812  0.19421627    -0.15200
C2089       C  0.77630651  0.20290737  0.18809469     0.35500
C2090       C  0.79536996  0.18109155  0.16764719    -0.26500
C2091       C  0.78137207  0.15451645  0.14957539    -0.15800
C2092       C  0.74573897  0.15130335  0.15293478     0.36600
N2093       N  0.72688016  0.12580488  0.13709642    -0.90000
H2094       H  0.70041446  0.16902867  0.17483544     0.17700
H2095       H  0.82188334  0.18579976  0.16526363     0.17700
N2096       N  0.79269853  0.23197101  0.20020429    -0.89000
H2097       H  0.73550056  0.10262443  0.14492404     0.35000
H2098       H  0.72833550  0.12863967  0.11150630     0.40100
H2099       H  0.80100383  0.24582731  0.17990272     0.39800
H2100       H  0.81374524  0.22453295  0.21357059     0.34600
C2101       C  0.65367450  0.18604023  0.28825042    -0.27100
C2102       C  0.65463143  0.15076538  0.28646227    -0.15200
C2103       C  0.67929173  0.13800855  0.26399603     0.35500
C2104       C  0.69910075  0.15925235  0.24398197    -0.26500
C2105       C  0.69656007  0.19436264  0.24400966    -0.15800
C2106       C  0.67420857  0.20729886  0.26831513     0.36600
N2107       N  0.67087836  0.24249767  0.27199269    -0.90000
H2108       H  0.63651569  0.19793346  0.30512851     0.17700
H2109       H  0.71751407  0.14711276  0.22880522     0.17700
N2110       N  0.68623874  0.10336280  0.26070227    -0.89000
H2111       H  0.67675153  0.24850577  0.29640112     0.35000
H2112       H  0.64594392  0.24898637  0.26792653     0.40100
H2113       H  0.66536321  0.09100085  0.25183726     0.39800
H2114       H  0.69449367  0.09375237  0.28317498     0.34600
C2115       C  0.97954922  0.42546904  0.42298346    -0.27100
C2116       C  0.49469898  0.44886198  0.44399037    -0.15200
C2117       C  0.53070182  0.45043942  0.44062464     0.35500
C2118       C  0.54844259  0.42677457  0.42135341    -0.26500
C2119       C  0.53302052  0.40209445  0.40203651    -0.15800
C2120       C  0.49737730  0.40219440  0.40291986     0.36600
N2121       N  0.97872409  0.37815947  0.38521818    -0.90000
H2122       H  0.95255861  0.42368944  0.42324198     0.17700
H2123       H  0.57540826  0.42871549  0.42054359     0.17700
N2124       N  0.55099089  0.47699844  0.45289197    -0.89000
H2125       H  0.96252658  0.39077645  0.36930027     0.35000
H2126       H  0.46399939  0.36469818  0.40112979     0.40100
H2127       H  0.56373341  0.46936227  0.47409908     0.39800
H2128       H  0.53846042  0.49938400  0.45570423     0.34600
C2129       C  0.93134972  0.39220179  0.01711163    -0.27100
C2130       C  0.90461210  0.40609090  0.03532199    -0.15200
C2131       C  0.90160155  0.44141758  0.03267707     0.35500
C2132       C  0.92358064  0.46043699  0.01218593    -0.26500
C2133       C  0.94894101  0.44633851  0.99204429    -0.15800
C2134       C  0.95390251  0.41139596  0.99736212     0.36600
N2135       N  0.98349271  0.39521444  0.48590365    -0.90000
H2136       H  0.93577349  0.36573985  0.01910030     0.17700
H2137       H  0.91986932  0.48706907  0.01117297     0.17700
N2138       N  0.87585514  0.45882103  0.05000030    -0.89000
H2139       H  0.97619506  0.37479106  0.47176056     0.35000
H2140       H  0.99677251  0.38626787  0.50629269     0.40100
H2141       H  0.86117064  0.47140563  0.03267138     0.39800
H2142       H  0.88709569  0.47645096  0.06527095     0.34600
C2143       C  0.93799990  0.03522548  0.40065215    -0.27100
C2144       C  0.90269490  0.03168987  0.40034845    -0.15200
C2145       C  0.89048688  0.00499252  0.42070482     0.35500
C2146       C  0.91211484  0.98575751  0.44102386    -0.26500
C2147       C  0.94701241  0.99118340  0.44355528    -0.15800
C2148       C  0.95962586  0.01539608  0.42083790     0.36600
N2149       N  0.99482052  0.02059313  0.41825058    -0.90000
H2150       H  0.94961390  0.05392155  0.38523222     0.17700
H2151       H  0.90067476  0.46577023  0.45423013     0.17700
N2152       N  0.85625572  0.99498097  0.42078843    -0.89000
H2153       H  0.99983855  0.04551553  0.42337814     0.35000
H2154       H  0.00168767  0.51540931  0.39284900     0.40100
H2155       H  0.84999890  0.98591951  0.39750443     0.39800
H2156       H  0.84109904  0.01479784  0.42762510     0.34600
C2157       C  0.50802882  0.04678360  0.01947552    -0.27100
C2158       C  0.53434663  0.03236892  0.03798078    -0.15200
C2159       C  0.53687781  0.99683658  0.03515387     0.35500
C2160       C  0.01456360  0.47864787  0.01455352    -0.26500
C2161       C  0.49072547  0.99331486  0.99381215    -0.15800
C2162       C  0.48586755  0.02815330  0.49866302     0.36600
N2163       N  0.45732656  0.04489350  0.48541943    -0.90000
H2164       H  0.50377332  0.07329669  0.52102822     0.17700
H2165       H  0.01791477  0.45198231  0.01329612     0.17700
N2166       N  0.56267946  0.97784072  0.05061288    -0.89000
H2167       H  0.46561246  0.06523302  0.47152982     0.35000
H2168       H  0.44319562  0.05402411  0.50515121     0.40100
H2169       H  0.56017717  0.97903772  0.07622086     0.39800
H2170       H  0.58556580  0.48636801  0.04239116     0.34600
C2171       C  0.55750491  0.05614661  0.55910582    -0.03300
C2172       C  0.87940168  0.05649946  0.87927982    -0.03300
C2173       C  0.88124141  0.38215125  0.55708827    -0.03300
C2174       C  0.55612934  0.37797874  0.88085779    -0.03300
C2175       C  0.97072597  0.47039837  0.96811906    -0.03300
C2176       C  0.82901386  0.33080730  0.78312128     0.79500
N2177       N  0.86161334  0.32181227  0.77613201    -0.78800
C2178       C  0.88525617  0.34586174  0.77144167     0.81900
N2179       N  0.87611096  0.37744294  0.77274480    -0.78800
C2180       C  0.84438292  0.38648322  0.77081338     0.82000
N2181       N  0.82019592  0.36308100  0.77541327    -0.80500
C2182       C  0.78611114  0.33289525  0.83108202     0.79500
N2183       N  0.77694235  0.32325017  0.86256300    -0.78800
C2184       C  0.77413621  0.34680925  0.88665934     0.81900
N2185       N  0.77909783  0.37858422  0.87885418    -0.78800
C2186       C  0.77751605  0.38878248  0.84766882     0.82000
N2187       N  0.78148966  0.36594714  0.82328581    -0.80500
C2188       C  0.65061539  0.33283501  0.60596715     0.79500
N2189       N  0.65849030  0.32414424  0.57394546    -0.78800
C2190       C  0.66348795  0.34834016  0.55083083     0.81900
N2191       N  0.66133457  0.37993583  0.55986583    -0.78800
C2192       C  0.66205689  0.38890415  0.59141388     0.82000
N2193       N  0.65695959  0.36527207  0.61501046    -0.80500
C2194       C  0.83020389  0.15345851  0.60563291     0.79500
N2195       N  0.86291078  0.15974577  0.61442061    -0.78800
C2196       C  0.88665415  0.16364268  0.59045511     0.81900
N2197       N  0.87756512  0.16148278  0.55906193    -0.78800
C2198       C  0.84589903  0.16523168  0.55024021     0.82000
N2199       N  0.82141096  0.16168096  0.57363217    -0.80500
O2200       O  0.67895943  0.37289795  0.94021820    -0.75200
O2201       O  0.75726619  0.37521157  0.99552624    -0.75200
O2202       O  0.74582146  0.37113417  0.93046812    -0.75300
O2203       O  0.69027175  0.37204029  0.50552962    -0.75300
O2204       O  0.69031653  0.31669005  0.50777132    -0.75300
O2205       O  0.74710054  0.31577086  0.93041950    -0.75200
O2206       O  0.75641089  0.31987022  0.99657702    -0.75200
O2207       O  0.68109247  0.31754313  0.94144966    -0.75300
Ni2208     Ni  0.71799817  0.37478627  0.96782617     1.25400
Ni2209     Ni  0.71876976  0.31540931  0.96906426     1.25400
C2210       C  0.66693214  0.34473429  0.93237713     0.87000
C2211       C  0.77009132  0.34764057  0.00448781     0.86900
C2212       C  0.75544114  0.34355201  0.91766675     0.86900
C2213       C  0.68129135  0.34468735  0.51940064     0.87100
O2214       O  0.81595014  0.24887432  0.92917511    -0.75200
O2215       O  0.81553752  0.19214538  0.50637516    -0.75200
O2216       O  0.81870069  0.25811356  0.99534145    -0.75300
O2217       O  0.81867715  0.18273884  0.93986290    -0.75300
O2218       O  0.87429369  0.18106198  0.94005388    -0.75300
O2219       O  0.87434664  0.25905641  0.99547101    -0.75200
O2220       O  0.87120912  0.19218494  0.50556302    -0.75200
O2221       O  0.87161148  0.24818837  0.93008961    -0.75300
Ni2222     Ni  0.81507805  0.22051912  0.96753983     1.25400
Ni2223     Ni  0.87477520  0.22015112  0.96769113     1.25400
C2224       C  0.84389488  0.25765931  0.91694222     0.87000
C2225       C  0.84329575  0.18326326  0.51880040     0.86900
C2226       C  0.84647895  0.27163279  0.00407767     0.86900
C2227       C  0.84636651  0.16857408  0.93164949     0.87100
C2228       C  0.85885649  0.35934300  0.53332612     0.79500
N2229       N  0.82649456  0.36842836  0.52539291    -0.78800
C2230       C  0.80283284  0.34435540  0.52110242     0.81900
N2231       N  0.81169416  0.31294097  0.02316023    -0.78800
C2232       C  0.84360211  0.30361891  0.52112823     0.82000
N2233       N  0.86788652  0.32697495  0.52603528    -0.80500
C2234       C  0.83060867  0.28750744  0.83039434     0.79500
N2235       N  0.82215562  0.28026383  0.86271973    -0.78800
C2236       C  0.84679899  0.27588799  0.88559554     0.81900
N2237       N  0.87837758  0.27834698  0.87601401    -0.78800
C2238       C  0.88678235  0.27514923  0.84442071     0.82000
N2239       N  0.86275647  0.27943546  0.82086021    -0.80500
C2240       C  0.60872321  0.32959184  0.65389115     0.79500
N2241       N  0.57609314  0.32078356  0.66058224    -0.78800
C2242       C  0.55268065  0.34507016  0.66479865     0.81900
N2243       N  0.56204582  0.37658648  0.66262420    -0.78800
C2244       C  0.59378982  0.38523701  0.66609552     0.82000
N2245       N  0.61792639  0.36149811  0.66249673    -0.80500
O2246       O  0.94217766  0.37368534  0.68043467    -0.75200
O2247       O  0.99805032  0.37150318  0.75806762    -0.75200
O2248       O  0.50759649  0.36956053  0.69167022    -0.75300
O2249       O  0.93204575  0.36982852  0.74685951    -0.75300
O2250       O  0.93023175  0.31448868  0.74672468    -0.75300
O2251       O  0.50798558  0.31420014  0.69069248    -0.75200
O2252       O  0.99733969  0.31617026  0.75607453    -0.75200
O2253       O  0.94138966  0.31834500  0.68139224    -0.75300
Ni2254     Ni  0.97006540  0.37320452  0.71937037     1.25400
Ni2255     Ni  0.96925447  0.31383353  0.71873044     1.25400
C2256       C  0.93330893  0.34615280  0.66774387     0.87000
C2257       C  0.00651451  0.34338568  0.76992743     0.86900
C2258       C  0.52074302  0.34196442  0.68232636     0.86900
C2259       C  0.91790457  0.34234181  0.75525564     0.87100
O2260       O  0.93021395  0.24687823  0.81350006    -0.75200
O2261       O  0.50600652  0.18762811  0.81508520    -0.75200
O2262       O  0.93861592  0.18081450  0.81602131    -0.75300
O2263       O  0.99757573  0.25341545  0.81727079    -0.75300
O2264       O  0.99706665  0.25442231  0.87234613    -0.75300
O2265       O  0.93712878  0.17955995  0.87110665    -0.75200
O2266       O  0.50346737  0.18736936  0.87012991    -0.75200
O2267       O  0.93084337  0.24645980  0.86856643    -0.75300
Ni2268     Ni  0.96816328  0.21713455  0.81341953     1.25400
Ni2269     Ni  0.96708871  0.21691309  0.87248245     1.25400
C2270       C  0.91791456  0.25608239  0.84108517     0.87000
C2271       C  0.51757058  0.17844712  0.84300148     0.86900
C2272       C  0.92855007  0.16765587  0.84325670     0.86900
C2273       C  0.00651158  0.26661206  0.84475957     0.87100
C2274       C  0.53591601  0.35389010  0.85693997     0.79500
N2275       N  0.52874302  0.32148955  0.86568361    -0.78800
C2276       C  0.52431848  0.29827197  0.84162602     0.81900
N2277       N  0.02630401  0.30774397  0.81017534    -0.78800
C2278       C  0.52417257  0.33934348  0.80144345     0.82000
N2279       N  0.52846747  0.36316867  0.82492771    -0.80500
C2280       C  0.60569490  0.14936297  0.83161886     0.79500
N2281       N  0.61475001  0.15701252  0.86368017    -0.78800
C2282       C  0.59060499  0.16182631  0.88714612     0.81900
N2283       N  0.55878086  0.15987423  0.87834377    -0.78800
C2284       C  0.54957612  0.16112926  0.84688074     0.82000
N2285       N  0.57310009  0.15628315  0.82292474    -0.80500
C2286       C  0.82878420  0.10923197  0.65264959     0.79500
N2287       N  0.86136048  0.11795057  0.65958740    -0.78800
C2288       C  0.88476834  0.09362867  0.66372848     0.81900
N2289       N  0.87541243  0.06214957  0.66144118    -0.78800
C2290       C  0.84362861  0.05341731  0.66437878     0.82000
N2291       N  0.81953856  0.07720645  0.66093304    -0.80500
O2292       O  0.87133760  0.44140720  0.67959672    -0.75200
O2293       O  0.87056483  0.49827086  0.75612495    -0.75200
O2294       O  0.86841389  0.43264724  0.74576816    -0.75300
O2295       O  0.86806417  0.00758565  0.68976155    -0.75300
O2296       O  0.81239899  0.00860305  0.68944718    -0.75300
O2297       O  0.81275599  0.43084860  0.74568900    -0.75200
O2298       O  0.81491062  0.49756992  0.75492973    -0.75200
O2299       O  0.81567339  0.44144027  0.68037162    -0.75300
Ni2300     Ni  0.87156477  0.46997852  0.71777552     1.25400
Ni2301     Ni  0.81185859  0.46957947  0.71759236     1.25400
C2302       C  0.84355078  0.43211888  0.66745410     0.87000
C2303       C  0.84250725  0.50654465  0.76851085     0.86900
C2304       C  0.84081187  0.41868367  0.75427515     0.86900
C2305       C  0.84034070  0.02121569  0.68109813     0.87100
O2306       O  0.68032381  0.43752229  0.87456623    -0.75200
O2307       O  0.75513451  0.49846581  0.87358146    -0.75200
O2308       O  0.68738082  0.00391995  0.87253821    -0.75300
O2309       O  0.74820602  0.43235367  0.87199164    -0.75300
O2310       O  0.74897772  0.43183050  0.81691663    -0.75300
O2311       O  0.68575094  0.00444761  0.81747086    -0.75200
O2312       O  0.75221812  0.49900364  0.81857991    -0.75200
O2313       O  0.68230197  0.43712722  0.81953106    -0.75300
Ni2314     Ni  0.71775223  0.46801229  0.87515981     1.25400
Ni2315     Ni  0.71728054  0.46807560  0.81614280     1.25400
C2316       C  0.66870243  0.42792765  0.84682226     0.87000
C2317       C  0.76630595  0.50803269  0.84553162     0.86900
C2318       C  0.67712129  0.01670036  0.84524757     0.86900
C2319       C  0.75842360  0.41982812  0.84460411     0.87100
C2320       C  0.85468756  0.03629855  0.85564089     0.79500
N2321       N  0.86346509  0.02818349  0.82359735    -0.78800
C2322       C  0.83908769  0.02365734  0.80041466     0.81900
N2323       N  0.80731159  0.52596184  0.80946151    -0.78800
C2324       C  0.79821763  0.02546893  0.84109509     0.82000
N2325       N  0.82190278  0.03056066  0.86457713    -0.80500
C2326       C  0.65078218  0.10426803  0.83153922     0.79500
N2327       N  0.65949268  0.11377651  0.86306696    -0.78800
C2328       C  0.66231203  0.09015548  0.88725247     0.81900
N2329       N  0.65776528  0.05837248  0.87956806    -0.78800
C2330       C  0.65912851  0.04828538  0.84841818     0.82000
N2331       N  0.65555496  0.07124989  0.82397334    -0.80500
O2332       O  0.62434073  0.24487585  0.50756404    -0.75200
O2333       O  0.62253967  0.18775931  0.93061521    -0.75200
O2334       O  0.62004396  0.25368082  0.94069515    -0.75300
O2335       O  0.62106250  0.17888252  0.99722421    -0.75300
O2336       O  0.56538824  0.17827737  0.99862503    -0.75300
O2337       O  0.56438754  0.25484034  0.94154905    -0.75200
O2338       O  0.56691692  0.18803602  0.93296532    -0.75200
O2339       O  0.56869516  0.24490276  0.50728152    -0.75300
Ni2340     Ni  0.62409175  0.21623705  0.96887798     1.25400
Ni2341     Ni  0.56439835  0.21647993  0.97007409     1.25400
C2342       C  0.59663884  0.25396482  0.52015653     0.87000
C2343       C  0.59435746  0.17907921  0.91891198     0.86900
C2344       C  0.59212794  0.26725444  0.93237281     0.86900
C2345       C  0.59336212  0.16584291  0.00694295     0.87100
C2346       C  0.57860584  0.35522999  0.90454591     0.79500
N2347       N  0.61077135  0.36450869  0.91227569    -0.78800
C2348       C  0.63482244  0.34078398  0.91580377     0.81900
N2349       N  0.62640490  0.30905934  0.91319826    -0.78800
C2350       C  0.59483259  0.29945590  0.91541619     0.82000
N2351       N  0.57014406  0.32262224  0.91141571    -0.80500
O2352       O  0.50766428  0.24793512  0.62134677    -0.75200
O2353       O  0.93079142  0.19010382  0.62136094    -0.75200
O2354       O  0.99799190  0.18233634  0.61907854    -0.75300
O2355       O  0.94025314  0.25597169  0.61853998    -0.75300
O2356       O  0.94078295  0.25791299  0.56349769    -0.75300
O2357       O  0.99820724  0.18057888  0.56403780    -0.77000
O2358       O  0.93201130  0.19082666  0.56629473    -0.75200
O2359       O  0.50728937  0.24710265  0.56628135    -0.75300
Ni2360     Ni  0.96909760  0.21917469  0.62205160     1.25400
Ni2361     Ni  0.96948070  0.21922592  0.56301196     1.25400
C2362       C  0.52028532  0.25668479  0.59371651     0.87000
C2363       C  0.91852302  0.18142468  0.59367948     0.86900
C2364       C  0.00697158  0.16849392  0.59188271     0.86900
C2365       C  0.93183424  0.27003733  0.59121739     0.87100
C2366       C  0.90335260  0.35840228  0.58017418     0.79500
N2367       N  0.91158616  0.36738591  0.61216904    -0.78800
C2368       C  0.91675465  0.34316308  0.63542691     0.81900
N2369       N  0.91488444  0.31164038  0.62637854    -0.78800
C2370       C  0.91543503  0.30248826  0.59499815     0.82000
N2371       N  0.91003870  0.32595185  0.57120691    -0.80500
C2372       C  0.60799897  0.28573684  0.60664859     0.79500
N2373       N  0.61767514  0.27676314  0.57503553    -0.78800
C2374       C  0.59371863  0.27266688  0.55125178     0.81900
N2375       N  0.56185287  0.27662352  0.55945220    -0.78800
C2376       C  0.55202198  0.27484831  0.59068715     0.82000
N2377       N  0.57511625  0.27949226  0.61497730    -0.80500
O2378       O  0.68055333  0.06301763  0.99697473    -0.75200
O2379       O  0.75727990  0.06427694  0.93956841    -0.75200
O2380       O  0.74768701  0.06592613  0.50532711    -0.75300
O2381       O  0.69026587  0.06611649  0.93152076    -0.75300
O2382       O  0.68908981  0.12149195  0.93037594    -0.75300
O2383       O  0.74774423  0.12130116  0.50609245    -0.75200
O2384       O  0.75513611  0.11964890  0.93955855    -0.75200
O2385       O  0.68116224  0.11839882  0.99686657    -0.75300
Ni2386     Ni  0.71895035  0.06295609  0.96822727     1.25400
Ni2387     Ni  0.71816062  0.12236843  0.96819788     1.25400
C2388       C  0.66801584  0.09064700  0.00590546     0.87000
C2389       C  0.76917554  0.09230732  0.93088034     0.86900
C2390       C  0.75713865  0.09354099  0.51815215     0.86900
C2391       C  0.68067409  0.09357682  0.91826458     0.87100
C2392       C  0.85726369  0.07987548  0.90290027     0.79500
N2393       N  0.86683794  0.11203963  0.91071868    -0.78800
C2394       C  0.84288717  0.13597379  0.91541256     0.81900
N2395       N  0.81103468  0.12740921  0.91337336    -0.78800
C2396       C  0.80144939  0.09596921  0.91446915     0.82000
N2397       N  0.82459590  0.07167739  0.90982214    -0.80500
O2398       O  0.75617243  0.43892915  0.56551342    -0.75200
O2399       O  0.68183059  0.50050170  0.56692237    -0.75200
O2400       O  0.74933526  0.00535429  0.56719309    -0.75300
O2401       O  0.68858622  0.43448309  0.56844176    -0.75300
O2402       O  0.68937121  0.43200997  0.62345219    -0.75300
O2403       O  0.75022720  0.00712305  0.62223008    -0.75200
O2404       O  0.68389569  0.49940842  0.62196206    -0.75200
O2405       O  0.75573613  0.43960501  0.62057496    -0.75300
Ni2406     Ni  0.71896183  0.46974448  0.56507566     1.25400
Ni2407     Ni  0.71984965  0.46948414  0.62407641     1.25400
C2408       C  0.76849986  0.42976707  0.59317940     0.87000
C2409       C  0.67027151  0.50931603  0.59500927     0.86900
C2410       C  0.75918747  0.01876864  0.59415532     0.86900
C2411       C  0.67968376  0.42060005  0.59563068     0.87100
C2412       C  0.85627377  0.40134978  0.58129032     0.79500
N2413       N  0.86517638  0.40942332  0.61322283    -0.78800
C2414       C  0.84083116  0.41302241  0.63667358     0.81900
N2415       N  0.80911769  0.40883054  0.62800444    -0.78800
C2416       C  0.79987777  0.41111044  0.59653360     0.82000
N2417       N  0.82356039  0.40752669  0.57258285    -0.80500
C2418       C  0.78765398  0.10624363  0.60421840     0.79500
N2419       N  0.78015486  0.11483774  0.57203654    -0.78800
C2420       C  0.77609455  0.09051176  0.54898963     0.81900
N2421       N  0.77930913  0.05893070  0.55819532    -0.78800
C2422       C  0.77744103  0.05007468  0.58982453     0.82000
N2423       N  0.78132338  0.07382105  0.61330772    -0.80500
O2424       O  0.56526177  0.43846069  0.75868753    -0.75200
O2425       O  0.56555463  0.49624711  0.68228268    -0.75200
O2426       O  0.56885647  0.43025339  0.69230343    -0.75300
O2427       O  0.56654881  0.00410115  0.74862274    -0.75300
O2428       O  0.62220375  0.00588654  0.74946602    -0.75300
O2429       O  0.62451726  0.42945251  0.69254864    -0.75200
O2430       O  0.62118363  0.49641861  0.68394109    -0.75200
O2431       O  0.62092806  0.43925529  0.75801352    -0.75300
Ni2432     Ni  0.56470385  0.46725497  0.72046832     1.25400
Ni2433     Ni  0.62439378  0.46781410  0.72100133     1.25400
C2434       C  0.59318348  0.42987595  0.77114170     0.87000
C2435       C  0.59357063  0.50553748  0.67041638     0.86900
C2436       C  0.59674945  0.41694790  0.68365040     0.86900
C2437       C  0.59394742  0.01789158  0.75772958     0.87100
C2438       C  0.58059386  0.39926862  0.85775280     0.79500
N2439       N  0.57182566  0.40772320  0.82584363    -0.78800
C2440       C  0.59624409  0.41181720  0.80256773     0.81900
N2441       N  0.62797357  0.40847711  0.81150482    -0.78800
C2442       C  0.63701608  0.40994032  0.84303567     0.82000
N2443       N  0.61320273  0.40561201  0.86677028    -0.80500
O2444       O  0.50601116  0.12312470  0.74708137    -0.75200
O2445       O  0.92934346  0.12415049  0.68985192    -0.75200
O2446       O  0.93898900  0.12063469  0.75537039    -0.75300
O2447       O  0.99655084  0.12074104  0.68155172    -0.75300
O2448       O  0.99618086  0.06536923  0.68014910    -0.75300
O2449       O  0.93836945  0.06525798  0.75618892    -0.75200
O2450       O  0.93009927  0.06877685  0.68984856    -0.75200
O2451       O  0.50422610  0.06777818  0.74678602    -0.75300
Ni2452     Ni  0.96780214  0.12415851  0.71845116     1.25400
Ni2453     Ni  0.96728416  0.06475428  0.71813810     1.25400
C2454       C  0.51810720  0.09514748  0.75566972     0.87000
C2455       C  0.91678740  0.09652009  0.68101693     0.86900
C2456       C  0.92957149  0.09298781  0.76848192     0.86900
C2457       C  0.00539635  0.09314757  0.66813747     0.87100
C2458       C  0.90037212  0.08048539  0.85541797     0.79500
N2459       N  0.90684406  0.11291955  0.86394210    -0.78800
C2460       C  0.91021269  0.13644858  0.83990905     0.81900
N2461       N  0.90759993  0.12740970  0.80850550    -0.78800
C2462       C  0.91126386  0.09584076  0.79977156     0.82000
N2463       N  0.90804375  0.07162785  0.82334607    -0.80500
C2464       C  0.60624492  0.10559963  0.78520382     0.79500
N2465       N  0.57407979  0.11513508  0.77721649    -0.78800
C2466       C  0.55009117  0.09136804  0.77284709     0.81900
N2467       N  0.55854408  0.05958065  0.77528669    -0.78800
C2468       C  0.59013427  0.04994392  0.77424482     0.82000
N2469       N  0.61447330  0.07297794  0.77883361    -0.80500
C2470       C  0.53528612  0.08005702  0.58169298     0.79500
N2471       N  0.52749855  0.07150494  0.61385403    -0.78800
C2472       C  0.52330084  0.09592630  0.63682643     0.81900
N2473       N  0.02590559  0.12767273  0.62736148    -0.78800
C2474       C  0.52401627  0.13612911  0.59585694     0.82000
N2475       N  0.52832840  0.11234408  0.57231235    -0.80500
C2476       C  0.58230448  0.03744488  0.58377337     0.79500
N2477       N  0.61524614  0.03214411  0.57544752    -0.78800
C2478       C  0.63848702  0.02715532  0.59935306     0.81900
N2479       N  0.62897957  0.52744389  0.63071104    -0.78800
C2480       C  0.59680809  0.02387219  0.63912196     0.82000
N2481       N  0.57286773  0.02857408  0.61550317    -0.80500
C2482       C  0.57993158  0.07864571  0.53508684     0.79500
N2483       N  0.61205883  0.06934812  0.52674426    -0.78800
C2484       C  0.63615852  0.09325391  0.52387086     0.81900
N2485       N  0.62780403  0.12501629  0.02803514    -0.78800
C2486       C  0.59609335  0.13437782  0.52499627     0.82000
N2487       N  0.57150442  0.11119165  0.52847464    -0.80500
C2488       C  0.62979164  0.12821502  0.80782254    -0.03300
C2489       C  0.80613767  0.13130032  0.62850454    -0.03300
C2490       C  0.80607139  0.30859533  0.80704589    -0.03300
C2491       C  0.63165557  0.30771826  0.62994453    -0.03300
C2492       C  0.71824155  0.21807640  0.71975588    -0.03300
C2493       C  0.64075769  0.25814260  0.66945106    -0.27100
C2494       C  0.65551281  0.28443798  0.65147933    -0.15200
C2495       C  0.69111824  0.28690526  0.65506753     0.35500
C2496       C  0.70913493  0.26470276  0.67580808    -0.26500
C2497       C  0.69421171  0.23974082  0.69574049    -0.15800
C2498       C  0.65882469  0.23558521  0.68980631     0.36600
N2499       N  0.64000616  0.20727051  0.70050710    -0.90000
H2500       H  0.61412604  0.25421485  0.66698209     0.17700
H2501       H  0.73584436  0.26808819  0.67726698     0.17700
N2502       N  0.71062972  0.31210371  0.63927671    -0.89000
H2503       H  0.63064852  0.21047340  0.72428819     0.35000
H2504       H  0.65291195  0.18510469  0.69711472     0.40100
H2505       H  0.70239140  0.33539543  0.64701703     0.39800
H2506       H  0.70926425  0.30944924  0.61367448     0.34600
C2507       C  0.78462559  0.25044152  0.78663628    -0.27100
C2508       C  0.78118042  0.28549500  0.78641664    -0.15200
C2509       C  0.75409429  0.29751203  0.76657397     0.35500
C2510       C  0.73466060  0.27586573  0.74672610    -0.26500
C2511       C  0.73992775  0.24104592  0.74450994    -0.15800
C2512       C  0.76484633  0.22852946  0.76711110     0.36600
N2513       N  0.77233857  0.19374120  0.77055231    -0.90000
H2514       H  0.80362331  0.23908959  0.80187227     0.17700
H2515       H  0.71402733  0.28718325  0.73381967     0.17700
N2516       N  0.74384668  0.33153571  0.76669738    -0.89000
H2517       H  0.79735261  0.19024288  0.76412015     0.35000
H2518       H  0.75881951  0.17916822  0.75428386     0.40100
H2519       H  0.76352204  0.34665010  0.75921232     0.39800
H2520       H  0.73546494  0.33784099  0.79027542     0.34600
C2521       C  0.72758245  0.17433454  0.67271545    -0.27100
C2522       C  0.74217104  0.19755737  0.69457682    -0.15200
C2523       C  0.77771416  0.20135126  0.69029630     0.35500
C2524       C  0.79642595  0.17913127  0.66983080    -0.26500
C2525       C  0.78185743  0.15429223  0.64992778    -0.15800
C2526       C  0.74601523  0.15291010  0.65160119     0.36600
N2527       N  0.72652843  0.12981726  0.63309478    -0.90000
H2528       H  0.70078530  0.17169059  0.67272836     0.17700
H2529       H  0.82327046  0.18206192  0.66863128     0.17700
N2530       N  0.79527765  0.22867441  0.70489950    -0.89000
H2531       H  0.73304572  0.10563896  0.63983258     0.35000
H2532       H  0.72982939  0.13415832  0.60787520     0.40100
H2533       H  0.78773167  0.25034209  0.69281668     0.39800
H2534       H  0.82103608  0.22672133  0.70113205     0.34600
C2535       C  0.65349049  0.18618454  0.78791023    -0.27100
C2536       C  0.65400796  0.15093435  0.78566260    -0.15200
C2537       C  0.67793703  0.13817427  0.76240764     0.35500
C2538       C  0.69836677  0.15941268  0.74301625    -0.26500
C2539       C  0.69648745  0.19451773  0.74376085    -0.15800
C2540       C  0.67410037  0.20744439  0.76806241     0.36600
N2541       N  0.67073915  0.24264412  0.77174117    -0.90000
H2542       H  0.63657858  0.19805665  0.80504812     0.17700
H2543       H  0.71632283  0.14727918  0.72730131     0.17700
N2544       N  0.68287143  0.10347784  0.75698463    -0.89000
H2545       H  0.67642278  0.24865600  0.79619174     0.35000
H2546       H  0.64583516  0.24912476  0.76747252     0.40100
H2547       H  0.66131858  0.09306035  0.74716410     0.39800
H2548       H  0.69036615  0.09190906  0.77875151     0.34600
C2549       C  0.97951615  0.42595429  0.92260146    -0.27100
C2550       C  0.49494949  0.44904943  0.94407305    -0.15200
C2551       C  0.53097473  0.45051082  0.94083986     0.35500
C2552       C  0.54871708  0.42681117  0.92157619    -0.26500
C2553       C  0.53325970  0.40232631  0.90202660    -0.15800
C2554       C  0.49760549  0.40275518  0.90259652     0.36600
N2555       N  0.97864389  0.37947624  0.88382354    -0.90000
H2556       H  0.95251126  0.42439842  0.92259810     0.17700
H2557       H  0.57569863  0.42860892  0.92090415     0.17700
N2558       N  0.55126743  0.47702956  0.95318450    -0.89000
H2559       H  0.96296712  0.39270143  0.86787679     0.35000
H2560       H  0.46374592  0.36577137  0.89956083     0.40100
H2561       H  0.56388179  0.46939067  0.97446107     0.39800
H2562       H  0.53873161  0.49943429  0.95591222     0.34600
C2563       C  0.93152238  0.39224672  0.51745647    -0.27100
C2564       C  0.90468445  0.40605890  0.53558010    -0.15200
C2565       C  0.90162479  0.44138362  0.53291707     0.35500
C2566       C  0.92343621  0.46042433  0.51220533    -0.26500
C2567       C  0.94888713  0.44635693  0.49211783    -0.15800
C2568       C  0.95405263  0.41148229  0.49771209     0.36600
N2569       N  0.98312034  0.39498442  0.98521622    -0.90000
H2570       H  0.93608691  0.36581733  0.51956411     0.17700
H2571       H  0.91963405  0.48704240  0.51110475     0.17700
N2572       N  0.87611107  0.45876564  0.55059465    -0.89000
H2573       H  0.97554689  0.37475641  0.97093625     0.35000
H2574       H  0.99646025  0.38573925  0.00543456     0.40100
H2575       H  0.86122530  0.47141383  0.53348645     0.39800
H2576       H  0.88757014  0.47634119  0.56577171     0.34600
C2577       C  0.93801680  0.03539616  0.90072828    -0.27100
C2578       C  0.90267928  0.03204643  0.90060584    -0.15200
C2579       C  0.89043367  0.00542553  0.92101586     0.35500
C2580       C  0.91203361  0.98615618  0.94131161    -0.26500
C2581       C  0.94697119  0.99136270  0.94362411    -0.15800
C2582       C  0.95963577  0.01538755  0.92073392     0.36600
N2583       N  0.99486715  0.02017124  0.91775870    -0.90000
H2584       H  0.94967940  0.05399000  0.88522214     0.17700
H2585       H  0.90069908  0.46572593  0.95432095     0.17700
N2586       N  0.85618471  0.99549045  0.92113256    -0.89000
H2587       H  0.00025043  0.04504571  0.92274667     0.35000
H2588       H  0.00169209  0.51631424  0.89344410     0.40100
H2589       H  0.84992663  0.98633605  0.89788438     0.39800
H2590       H  0.84107304  0.01537743  0.92786479     0.34600
C2591       C  0.50791588  0.04679373  0.51916629    -0.27100
C2592       C  0.53416906  0.03234540  0.53775741    -0.15200
C2593       C  0.53671008  0.99683167  0.53494276     0.35500
C2594       C  0.01450917  0.47866003  0.51451037    -0.26500
C2595       C  0.49068925  0.99331477  0.49353755    -0.15800
C2596       C  0.48592501  0.02814418  0.99902152     0.36600
N2597       N  0.45735342  0.04490029  0.98587949    -0.90000
H2598       H  0.50388083  0.07328356  0.02136374     0.17700
H2599       H  0.01781828  0.45199067  0.51329853     0.17700
N2600       N  0.56254691  0.97783879  0.55033614    -0.89000
H2601       H  0.46560758  0.06526438  0.97200788     0.35000
H2602       H  0.44327641  0.05399590  0.00566456     0.40100
H2603       H  0.56003964  0.97891810  0.57594844     0.39800
H2604       H  0.58566242  0.48649679  0.54206673     0.34600
C2605       C  0.55743433  0.55618121  0.05918834    -0.03300
C2606       C  0.87928523  0.55638835  0.37896598    -0.03300
C2607       C  0.88102940  0.88219231  0.05723322    -0.03300
C2608       C  0.55609592  0.87778369  0.38083575    -0.03300
C2609       C  0.97069186  0.97016787  0.46838938    -0.03300
C2610       C  0.82890276  0.83102234  0.28320225     0.79500
N2611       N  0.86153278  0.82215311  0.27630766    -0.78800
C2612       C  0.88511734  0.84624015  0.27165452     0.81900
N2613       N  0.87589493  0.87781645  0.27278982    -0.78800
C2614       C  0.84413917  0.88677416  0.27079644     0.82000
N2615       N  0.82000110  0.86329688  0.27547070    -0.80500
C2616       C  0.78602048  0.83271685  0.33117844     0.79500
N2617       N  0.77686727  0.82295543  0.36264651    -0.78800
C2618       C  0.77407025  0.84644247  0.38682818     0.81900
N2619       N  0.77904189  0.87824106  0.37910503    -0.78800
C2620       C  0.77751505  0.88853910  0.34794928     0.82000
N2621       N  0.78144625  0.86578606  0.32350506    -0.80500
C2622       C  0.65048577  0.83299621  0.10601121     0.79500
N2623       N  0.65830248  0.82428740  0.07397717    -0.78800
C2624       C  0.66352858  0.84846121  0.05088601     0.81900
N2625       N  0.66169199  0.88006961  0.05994578    -0.78800
C2626       C  0.66227675  0.88908357  0.09147354     0.82000
N2627       N  0.65694842  0.86545412  0.11506499    -0.80500
C2628       C  0.82992253  0.65355677  0.10547980     0.79500
N2629       N  0.86260856  0.65998407  0.11427344    -0.78800
C2630       C  0.88632339  0.66403407  0.09030249     0.81900
N2631       N  0.87720789  0.66195719  0.05891703    -0.78800
C2632       C  0.84551234  0.66547262  0.05009602     0.82000
N2633       N  0.82106450  0.66175532  0.07348937    -0.80500
O2634       O  0.67895413  0.87262465  0.44032558    -0.75200
O2635       O  0.75720894  0.87494919  0.49571253    -0.75200
O2636       O  0.74580241  0.87075433  0.43066274    -0.75300
O2637       O  0.69004079  0.87205011  0.00541057    -0.75300
O2638       O  0.69020581  0.81670624  0.00776269    -0.75300
O2639       O  0.74702628  0.81539535  0.43067216    -0.75200
O2640       O  0.75626903  0.81961093  0.49687594    -0.75200
O2641       O  0.68099501  0.81727049  0.44167149    -0.75300
Ni2642     Ni  0.71796222  0.87452016  0.46798146     1.25400
Ni2643     Ni  0.71865378  0.81514781  0.46932994     1.25400
C2644       C  0.66690490  0.84446726  0.43249543     0.87000
C2645       C  0.77001135  0.84737462  0.50469739     0.86900
C2646       C  0.75538632  0.84315686  0.41787105     0.86900
C2647       C  0.68115365  0.84471291  0.01936241     0.87100
O2648       O  0.81597007  0.74850339  0.42893714    -0.75200
O2649       O  0.81505355  0.69228437  0.00616659    -0.75200
O2650       O  0.81887778  0.75786674  0.49504409    -0.75300
O2651       O  0.81861941  0.68242657  0.43969535    -0.75300
O2652       O  0.87424071  0.68077605  0.43966195    -0.75300
O2653       O  0.87452100  0.75870382  0.49520097    -0.75200
O2654       O  0.87072433  0.69239273  0.00543128    -0.75200
O2655       O  0.87163368  0.74788547  0.42982433    -0.75300
Ni2656     Ni  0.81514689  0.72021520  0.46733938     1.25400
Ni2657     Ni  0.87484163  0.71979334  0.46738256     1.25400
C2658       C  0.84389776  0.75734354  0.41670994     0.87000
C2659       C  0.84281595  0.68344189  0.01863200     0.86900
C2660       C  0.84667367  0.77138677  0.50373120     0.86900
C2661       C  0.84627940  0.66831158  0.43133247     0.87100
C2662       C  0.85861204  0.85940247  0.03348452     0.79500
N2663       N  0.82626414  0.86851729  0.02551894    -0.78800
C2664       C  0.80257385  0.84446549  0.02127262     0.81900
N2665       N  0.81185487  0.81267267  0.52280368    -0.78800
C2666       C  0.84330179  0.80369982  0.02131770     0.82000
N2667       N  0.86761267  0.82703082  0.02620243    -0.80500
C2668       C  0.83059776  0.78746817  0.33028620     0.79500
N2669       N  0.82211941  0.78000683  0.36255011    -0.78800
C2670       C  0.84675042  0.77571707  0.38545138     0.81900
N2671       N  0.87833113  0.77847369  0.37594624    -0.78800
C2672       C  0.88679214  0.77533527  0.34435760     0.82000
N2673       N  0.86278763  0.77956629  0.32077296    -0.80500
C2674       C  0.60875337  0.82955051  0.15411860     0.79500
N2675       N  0.57623322  0.82060234  0.16110279    -0.78800
C2676       C  0.55271130  0.84482380  0.16508722     0.81900
N2677       N  0.56188813  0.87637454  0.16251520    -0.78800
C2678       C  0.59359253  0.88521387  0.16581511     0.82000
N2679       N  0.61781526  0.86156463  0.16239143    -0.80500
O2680       O  0.94182903  0.87364200  0.18067851    -0.75200
O2681       O  0.99799986  0.87150818  0.25815157    -0.75200
O2682       O  0.50769387  0.86936058  0.19193362    -0.75300
O2683       O  0.93197561  0.87006603  0.24715663    -0.75300
O2684       O  0.92999519  0.81472660  0.24705024    -0.75300
O2685       O  0.50796027  0.81399677  0.19086116    -0.75200
O2686       O  0.99711243  0.81617593  0.25627104    -0.75200
O2687       O  0.94101221  0.81830449  0.18167524    -0.75300
Ni2688     Ni  0.96987015  0.87320729  0.21953374     1.25400
Ni2689     Ni  0.96895863  0.81384177  0.21898660     1.25400
C2690       C  0.93293010  0.84610307  0.16800607     0.87000
C2691       C  0.00640124  0.84338515  0.27005536     0.86900
C2692       C  0.52080839  0.84174424  0.18261279     0.86900
C2693       C  0.91777260  0.84263454  0.25557238     0.87100
O2694       O  0.93010406  0.74689958  0.31346706    -0.75200
O2695       O  0.50607032  0.68719994  0.31494612    -0.75200
O2696       O  0.93847071  0.68077840  0.31581261    -0.75300
O2697       O  0.99740507  0.75341795  0.31741226    -0.75300
O2698       O  0.99690471  0.75427183  0.37248700    -0.75300
O2699       O  0.93676973  0.67954180  0.37089409    -0.75200
O2700       O  0.50337100  0.68688523  0.36998320    -0.75200
O2701       O  0.93071340  0.74648671  0.36853467    -0.75300
Ni2702     Ni  0.96802305  0.71713685  0.31338864     1.25400
Ni2703     Ni  0.96682979  0.71681367  0.37244927     1.25400
C2704       C  0.91784890  0.75616858  0.34104814     0.87000
C2705       C  0.51755286  0.67799083  0.34288666     0.86900
C2706       C  0.92828037  0.66763988  0.34301355     0.86900
C2707       C  0.00631581  0.76656882  0.34493260     0.87100
C2708       C  0.53578328  0.85366654  0.35702233     0.79500
N2709       N  0.52881534  0.82119588  0.36572629    -0.78800
C2710       C  0.52432823  0.79801498  0.34163941     0.81900
N2711       N  0.02604958  0.80772593  0.31035335    -0.78800
C2712       C  0.52375819  0.83920332  0.30158208     0.82000
N2713       N  0.52809993  0.86299964  0.32508521    -0.80500
C2714       C  0.60579631  0.64922263  0.33163629     0.79500
N2715       N  0.61483338  0.65706887  0.36367097    -0.78800
C2716       C  0.59066762  0.66191254  0.38712910     0.81900
N2717       N  0.55885436  0.65987204  0.37832487    -0.78800
C2718       C  0.54961910  0.66080944  0.34686436     0.82000
N2719       N  0.57314527  0.65586580  0.32293986    -0.80500
C2720       C  0.82862980  0.60918601  0.15239876     0.79500
N2721       N  0.86128702  0.61777337  0.15906150    -0.78800
C2722       C  0.88459944  0.59340094  0.16331033     0.81900
N2723       N  0.87509534  0.56194520  0.16131833    -0.78800
C2724       C  0.84326725  0.55335920  0.16439570     0.82000
N2725       N  0.81925975  0.57724705  0.16092821    -0.80500
O2726       O  0.87101543  0.94180600  0.17949099    -0.75200
O2727       O  0.87008167  0.99869862  0.25593236    -0.75200
O2728       O  0.86808999  0.93300067  0.24564889    -0.75300
O2729       O  0.86764764  0.50757904  0.18986196    -0.75300
O2730       O  0.81198582  0.50843336  0.18938250    -0.75300
O2731       O  0.81243918  0.93113519  0.24561610    -0.75200
O2732       O  0.81442277  0.99793363  0.25481172    -0.75200
O2733       O  0.81535095  0.94171936  0.18028021    -0.75300
Ni2734     Ni  0.87115401  0.97037733  0.21764027     1.25400
Ni2735     Ni  0.81145028  0.96988419  0.21749130     1.25400
C2736       C  0.84325142  0.93242425  0.16738555     0.87000
C2737       C  0.84203113  0.00698811  0.26831635     0.86900
C2738       C  0.84051421  0.91898732  0.25418916     0.86900
C2739       C  0.83992150  0.52115531  0.18114389     0.87100
O2740       O  0.68034840  0.93732402  0.37479121    -0.75200
O2741       O  0.75525490  0.99826948  0.37378463    -0.75200
O2742       O  0.68741140  0.50394750  0.37276267    -0.75300
O2743       O  0.74829115  0.93213142  0.37229287    -0.75300
O2744       O  0.74912229  0.93165459  0.31721563    -0.75300
O2745       O  0.68565564  0.50449455  0.31769514    -0.75200
O2746       O  0.75225777  0.99882301  0.31879209    -0.75200
O2747       O  0.68247899  0.93688950  0.31976424    -0.75300
Ni2748     Ni  0.71784540  0.96778621  0.37542332     1.25400
Ni2749     Ni  0.71738564  0.96785283  0.31641223     1.25400
C2750       C  0.66872242  0.92781933  0.34700614     0.87000
C2751       C  0.76635738  0.00789373  0.34571338     0.86900
C2752       C  0.67704564  0.51669595  0.34549984     0.86900
C2753       C  0.75851811  0.91962293  0.34490849     0.87100
C2754       C  0.85449063  0.53623238  0.35541163     0.79500
N2755       N  0.86314002  0.52814750  0.32334941    -0.78800
C2756       C  0.83868541  0.52387164  0.30020944     0.81900
N2757       N  0.80700851  0.02637844  0.30946695    -0.78800
C2758       C  0.79795839  0.52571131  0.34098548     0.82000
N2759       N  0.82173280  0.53056058  0.36441787    -0.80500
C2760       C  0.65077341  0.60414216  0.33170463     0.79500
N2761       N  0.65949373  0.61368082  0.36321172    -0.78800
C2762       C  0.66216082  0.59008795  0.38743513     0.81900
N2763       N  0.65745021  0.55830386  0.37979813    -0.78800
C2764       C  0.65891900  0.54818544  0.34865717     0.82000
N2765       N  0.65546074  0.57111925  0.32418248    -0.80500
O2766       O  0.62417064  0.74477711  0.00759680    -0.75200
O2767       O  0.62250711  0.68772728  0.43077628    -0.75200
O2768       O  0.61990284  0.75359636  0.44088714    -0.75300
O2769       O  0.62095570  0.67887214  0.49743049    -0.75300
O2770       O  0.56528018  0.67819066  0.49875488    -0.75300
O2771       O  0.56424460  0.75474271  0.44167491    -0.75200
O2772       O  0.56688317  0.68795557  0.43303553    -0.75200
O2773       O  0.56853051  0.74485900  0.00719137    -0.75300
Ni2774     Ni  0.62396386  0.71619614  0.46906861     1.25400
Ni2775     Ni  0.56426949  0.71638116  0.47018999     1.25400
C2776       C  0.59645035  0.75387973  0.02015413     0.87000
C2777       C  0.59435555  0.67907678  0.41897796     0.86900
C2778       C  0.59199632  0.76715271  0.43252814     0.86900
C2779       C  0.59326328  0.66581558  0.50713492     0.87100
C2780       C  0.57863921  0.85507003  0.40448913     0.79500
N2781       N  0.61084183  0.86431560  0.41213837    -0.78800
C2782       C  0.63483641  0.84055061  0.41581049     0.81900
N2783       N  0.62634911  0.80884266  0.41328997    -0.78800
C2784       C  0.59475432  0.79931301  0.41553461     0.82000
N2785       N  0.57011366  0.82251536  0.41150486    -0.80500
O2786       O  0.50718966  0.74829930  0.12132829    -0.75200
O2787       O  0.93059991  0.69027646  0.12125192    -0.75200
O2788       O  0.99782192  0.68237189  0.11904808    -0.75300
O2789       O  0.94024776  0.75607264  0.11848375    -0.75300
O2790       O  0.94072211  0.75804226  0.06344236    -0.75300
O2791       O  0.99809948  0.68064333  0.06400869    -0.77000
O2792       O  0.93186409  0.69097864  0.06618812    -0.75200
O2793       O  0.50670256  0.74765447  0.06626933    -0.75300
Ni2794     Ni  0.96900064  0.71925585  0.12198257     1.25400
Ni2795     Ni  0.96938741  0.71932621  0.06294741     1.25400
C2796       C  0.51976488  0.75716406  0.09370415     0.87000
C2797       C  0.91829807  0.68165458  0.09356139     0.86900
C2798       C  0.00683643  0.66854183  0.09186195     0.86900
C2799       C  0.93180496  0.77014673  0.09118336     0.87100
C2800       C  0.90307517  0.85844128  0.08036944     0.79500
N2801       N  0.91116947  0.86735858  0.11242721    -0.78800
C2802       C  0.91644275  0.84310581  0.13563127     0.81900
N2803       N  0.91478753  0.81160954  0.12646923    -0.78800
C2804       C  0.91537193  0.80255234  0.09505201     0.82000
N2805       N  0.90989676  0.82604952  0.07131781    -0.80500
C2806       C  0.60767517  0.78599794  0.10664275     0.79500
N2807       N  0.61738577  0.77683346  0.07508532    -0.78800
C2808       C  0.59346074  0.77257162  0.05128253     0.81900
N2809       N  0.56157548  0.77654612  0.05940675    -0.78800
C2810       C  0.55163678  0.77517760  0.09062565     0.82000
N2811       N  0.57470921  0.77999178  0.11491939    -0.80500
O2812       O  0.68036281  0.56285845  0.49694125    -0.75200
O2813       O  0.75726603  0.56398381  0.43971054    -0.75200
O2814       O  0.74742740  0.56622899  0.00506751    -0.75300
O2815       O  0.69025995  0.56598089  0.43154211    -0.75300
O2816       O  0.68907658  0.62135822  0.43052882    -0.75300
O2817       O  0.74723071  0.62160156  0.00610413    -0.75200
O2818       O  0.75514752  0.61935379  0.43964708    -0.75200
O2819       O  0.68118897  0.61823501  0.49701531    -0.75300
Ni2820     Ni  0.71884912  0.56271403  0.46828829     1.25400
Ni2821     Ni  0.71819716  0.62212425  0.46832072     1.25400
C2822       C  0.66791100  0.59050689  0.50594068     0.87000
C2823       C  0.76917671  0.59200233  0.43098737     0.86900
C2824       C  0.75672752  0.59382289  0.01803471     0.86900
C2825       C  0.68063695  0.59346655  0.41837465     0.87100
C2826       C  0.85721538  0.57968441  0.40269982     0.79500
N2827       N  0.86673571  0.61187859  0.41037279    -0.78800
C2828       C  0.84275950  0.63576220  0.41506399     0.81900
N2829       N  0.81091213  0.62712778  0.41315957    -0.78800
C2830       C  0.80141195  0.59566368  0.41447043     0.82000
N2831       N  0.82460879  0.57141040  0.40984021    -0.80500
O2832       O  0.75626514  0.93938022  0.06537555    -0.75200
O2833       O  0.68187895  0.00083943  0.06689224    -0.75200
O2834       O  0.74941428  0.50532977  0.06691367    -0.75300
O2835       O  0.68870767  0.93477314  0.06844003    -0.75300
O2836       O  0.68934610  0.93254105  0.12345315    -0.75300
O2837       O  0.75039312  0.50709430  0.12195216    -0.75200
O2838       O  0.68427220  0.00005210  0.12192638    -0.75200
O2839       O  0.75568642  0.93987554  0.12043981    -0.75300
Ni2840     Ni  0.71902707  0.97013708  0.06496368     1.25400
Ni2841     Ni  0.72002389  0.96993058  0.12395999     1.25400
C2842       C  0.76847067  0.93008548  0.09305089     0.87000
C2843       C  0.67050627  0.00980765  0.09500589     0.86900
C2844       C  0.75928293  0.51875572  0.09386540     0.86900
C2845       C  0.67978047  0.92093717  0.09565893     0.87100
C2846       C  0.85611290  0.90148135  0.08135341     0.79500
N2847       N  0.86498491  0.90960898  0.11327381    -0.78800
C2848       C  0.84059887  0.91323491  0.13667000     0.81900
N2849       N  0.80890953  0.90898908  0.12795218    -0.78800
C2850       C  0.79974264  0.91132670  0.09646041     0.82000
N2851       N  0.82345566  0.90774719  0.07256391    -0.80500
C2852       C  0.78745260  0.60628162  0.10406703     0.79500
N2853       N  0.77974513  0.61497341  0.07196420    -0.78800
C2854       C  0.77566019  0.59071893  0.04885613     0.81900
N2855       N  0.77899088  0.55911474  0.05792905    -0.78800
C2856       C  0.77738997  0.55013079  0.08952908     0.82000
N2857       N  0.78133798  0.57379830  0.11306911    -0.80500
O2858       O  0.56497951  0.93828700  0.25831031    -0.75200
O2859       O  0.56555666  0.99635024  0.18205717    -0.75200
O2860       O  0.56861478  0.93032766  0.19180036    -0.75300
O2861       O  0.56680401  0.50406855  0.24863091    -0.75300
O2862       O  0.62246034  0.50594001  0.24947713    -0.75300
O2863       O  0.62427739  0.92941094  0.19220359    -0.75200
O2864       O  0.62118981  0.99635779  0.18379260    -0.75200
O2865       O  0.62063922  0.93906241  0.25766659    -0.75300
Ni2866     Ni  0.56452508  0.96721627  0.22012382     1.25400
Ni2867     Ni  0.62421361  0.96767876  0.22074466     1.25400
C2868       C  0.59289736  0.92974953  0.27083775     0.87000
C2869       C  0.59362990  0.00560817  0.17028951     0.86900
C2870       C  0.59650604  0.91698385  0.18321703     0.86900
C2871       C  0.59418393  0.51790933  0.25771090     0.87100
C2872       C  0.58048185  0.89903777  0.35761642     0.79500
N2873       N  0.57166783  0.90742215  0.32566991    -0.78800
C2874       C  0.59606977  0.91195402  0.30244704     0.81900
N2875       N  0.62781140  0.90912314  0.31147841    -0.78800
C2876       C  0.63684641  0.91020720  0.34302082     0.82000
N2877       N  0.61304878  0.90553596  0.36669032    -0.80500
O2878       O  0.50631636  0.62353159  0.24665614    -0.75200
O2879       O  0.92898546  0.62407699  0.18949095    -0.75200
O2880       O  0.93839518  0.62092407  0.25506129    -0.75300
O2881       O  0.99622457  0.62091916  0.18140670    -0.75300
O2882       O  0.99620316  0.56554174  0.18030424    -0.75300
O2883       O  0.93775818  0.56554607  0.25587127    -0.75200
O2884       O  0.93002243  0.56870536  0.18945909    -0.75200
O2885       O  0.50440863  0.56818938  0.24638111    -0.75300
Ni2886     Ni  0.96735387  0.62437972  0.21821274     1.25400
Ni2887     Ni  0.96699596  0.56498013  0.21807415     1.25400
C2888       C  0.51843554  0.59553195  0.25513129     0.87000
C2889       C  0.91661383  0.59638211  0.18058185     0.86900
C2890       C  0.92888697  0.59327744  0.26810922     0.86900
C2891       C  0.00530023  0.59330884  0.16817115     0.87100
C2892       C  0.90013158  0.58045990  0.35504155     0.79500
N2893       N  0.90671235  0.61285364  0.36362298    -0.78800
C2894       C  0.90982409  0.63649563  0.33965207     0.81900
N2895       N  0.90685988  0.62760256  0.30822292    -0.78800
C2896       C  0.91050066  0.59605639  0.29935388     0.82000
N2897       N  0.90749434  0.57175949  0.32286842    -0.80500
C2898       C  0.60660711  0.60565252  0.28499352     0.79500
N2899       N  0.57455561  0.61533698  0.27669344    -0.78800
C2900       C  0.55050412  0.59165470  0.27213828     0.81900
N2901       N  0.55880485  0.55984025  0.27463107    -0.78800
C2902       C  0.59034204  0.55004969  0.27400290     0.82000
N2903       N  0.61472895  0.57297888  0.27877564    -0.80500
C2904       C  0.53531250  0.58030461  0.08170369     0.79500
N2905       N  0.52749963  0.57188513  0.11387095    -0.78800
C2906       C  0.52329792  0.59640443  0.13673789     0.81900
N2907       N  0.02588317  0.62778200  0.12738139    -0.78800
C2908       C  0.52414820  0.63650263  0.09569980     0.82000
N2909       N  0.52838746  0.61260172  0.07222727    -0.80500
C2910       C  0.58228272  0.53747064  0.08384780     0.79500
N2911       N  0.61512226  0.53177904  0.07531673    -0.78800
C2912       C  0.63850929  0.52681381  0.09910652     0.81900
N2913       N  0.62916266  0.02771321  0.13078243    -0.78800
C2914       C  0.59710034  0.52410978  0.13918049     0.82000
N2915       N  0.57301691  0.52895244  0.11572204    -0.80500
C2916       C  0.57982021  0.57856623  0.03506534     0.79500
N2917       N  0.61200073  0.56934969  0.02689632    -0.78800
C2918       C  0.63601935  0.59332439  0.02406307     0.81900
N2919       N  0.62772771  0.62494004  0.52807735    -0.78800
C2920       C  0.59583840  0.63431101  0.02494336     0.82000
N2921       N  0.57130676  0.61104083  0.02823799    -0.80500
C2922       C  0.63001324  0.62813293  0.30790101    -0.03300
C2923       C  0.80594475  0.63130637  0.12833952    -0.03300
C2924       C  0.80601331  0.80858825  0.30702526    -0.03300
C2925       C  0.63151970  0.80778728  0.12998216    -0.03300
C2926       C  0.71820216  0.71798340  0.21968905    -0.03300
C2927       C  0.64062701  0.75802472  0.16938783    -0.27100
C2928       C  0.65537117  0.78433759  0.15140041    -0.15200
C2929       C  0.69098098  0.78675881  0.15495789     0.35500
C2930       C  0.70900868  0.76456165  0.17570142    -0.26500
C2931       C  0.69410942  0.73963721  0.19569483    -0.15800
C2932       C  0.65871715  0.73546822  0.18976575     0.36600
N2933       N  0.63992135  0.70715686  0.20052284    -0.90000
H2934       H  0.61399109  0.75410729  0.16693769     0.17700
H2935       H  0.73572324  0.76792599  0.17711274     0.17700
N2936       N  0.71049903  0.81191159  0.13911266    -0.89000
H2937       H  0.63095561  0.71022886  0.22445994     0.35000
H2938       H  0.65279990  0.68500509  0.19691610     0.40100
H2939       H  0.70232122  0.83521893  0.14686582     0.39800
H2940       H  0.70905336  0.80924534  0.11351592     0.34600
C2941       C  0.78459378  0.75038970  0.28659760    -0.27100
C2942       C  0.78117764  0.78545480  0.28633623    -0.15200
C2943       C  0.75412856  0.79745216  0.26644177     0.35500
C2944       C  0.73470560  0.77579473  0.24658768    -0.26500
C2945       C  0.73993319  0.74096567  0.24441727    -0.15800
C2946       C  0.76483764  0.72846177  0.26705212     0.36600
N2947       N  0.77233604  0.69367526  0.27051900    -0.90000
H2948       H  0.80354573  0.73903649  0.30188886     0.17700
H2949       H  0.71410001  0.78711699  0.23364633     0.17700
N2950       N  0.74390425  0.83147990  0.26652161    -0.89000
H2951       H  0.79737560  0.69019389  0.26418673     0.35000
H2952       H  0.75892107  0.67910897  0.25415913     0.40100
H2953       H  0.76358196  0.84656196  0.25898778     0.39800
H2954       H  0.73556883  0.83783259  0.29010282     0.34600
C2955       C  0.72745627  0.67433869  0.17258485    -0.27100
C2956       C  0.74208887  0.69748593  0.19449080    -0.15200
C2957       C  0.77762973  0.70124893  0.19022510     0.35500
C2958       C  0.79631440  0.67899435  0.16979293    -0.26500
C2959       C  0.78169771  0.65425918  0.14980146    -0.15800
C2960       C  0.74584829  0.65301317  0.15135094     0.36600
N2961       N  0.72630523  0.63024989  0.13250145    -0.90000
H2962       H  0.70065625  0.67175462  0.17257108     0.17700
H2963       H  0.82316953  0.68185359  0.16864550     0.17700
N2964       N  0.79520374  0.72859056  0.20478215    -0.89000
H2965       H  0.73263743  0.60595153  0.13897679     0.35000
H2966       H  0.72974287  0.63487555  0.10734898     0.40100
H2967       H  0.78764827  0.75023680  0.19267825     0.39800
H2968       H  0.82096447  0.72663586  0.20098743     0.34600
C2969       C  0.65377117  0.68605249  0.28806518    -0.27100
C2970       C  0.65443257  0.65081299  0.28595697    -0.15200
C2971       C  0.67862325  0.63802769  0.26297539     0.35500
C2972       C  0.69858390  0.65926968  0.24309693    -0.26500
C2973       C  0.69654722  0.69437893  0.24372584    -0.15800
C2974       C  0.67432097  0.70729861  0.26816461     0.36600
N2975       N  0.67105346  0.74249200  0.27193151    -0.90000
H2976       H  0.63683158  0.69792155  0.30517736     0.17700
H2977       H  0.71655347  0.64716932  0.22736073     0.17700
N2978       N  0.68469191  0.60332719  0.25875684    -0.89000
H2979       H  0.67691388  0.74843959  0.29635820     0.35000
H2980       H  0.64613711  0.74902633  0.26782704     0.40100
H2981       H  0.66347402  0.59177210  0.24953841     0.39800
H2982       H  0.69271665  0.59287323  0.28090899     0.34600
C2983       C  0.97961998  0.92557964  0.42307772    -0.27100
C2984       C  0.49509396  0.94892703  0.44415680    -0.15200
C2985       C  0.53111324  0.95047402  0.44075479     0.35500
C2986       C  0.54881539  0.92684823  0.42135198    -0.26500
C2987       C  0.53332108  0.90217079  0.40205988    -0.15800
C2988       C  0.49768302  0.90233986  0.40301765     0.36600
N2989       N  0.97875985  0.87927771  0.38412538    -0.90000
H2990       H  0.95262113  0.92392873  0.42314412     0.17700
H2991       H  0.57578373  0.92876158  0.42048362     0.17700
N2992       N  0.55145059  0.97690505  0.45321515    -0.89000
H2993       H  0.96300709  0.89254251  0.36828483     0.35000
H2994       H  0.46423903  0.86491259  0.40119504     0.40100
H2995       H  0.56402047  0.96916948  0.47448537     0.39800
H2996       H  0.53897864  0.99934111  0.45596519     0.34600
C2997       C  0.93129124  0.89217901  0.01758825    -0.27100
C2998       C  0.90449547  0.90603902  0.03573133    -0.15200
C2999       C  0.90144902  0.94136112  0.03305896     0.35500
C3000       C  0.92334938  0.96038602  0.01245788    -0.26500
C3001       C  0.94876390  0.94629256  0.99236110    -0.15800
C3002       C  0.95381214  0.91138048  0.99780985     0.36600
N3003       N  0.98375638  0.89514778  0.48628024    -0.90000
H3004       H  0.93578648  0.86573394  0.01965040     0.17700
H3005       H  0.91959876  0.98701266  0.01139266     0.17700
N3006       N  0.87580605  0.95875328  0.05054435    -0.89000
H3007       H  0.97654783  0.87469017  0.47214296     0.35000
H3008       H  0.99706535  0.88627250  0.50668307     0.40100
H3009       H  0.86100662  0.97134082  0.03331626     0.39800
H3010       H  0.88713929  0.97637337  0.06575907     0.34600
C3011       C  0.93795808  0.53525635  0.40022470    -0.27100
C3012       C  0.90262649  0.53190752  0.40019793    -0.15200
C3013       C  0.89044160  0.50530068  0.42066823     0.35500
C3014       C  0.91209363  0.48608200  0.44096520    -0.26500
C3015       C  0.94702440  0.49134371  0.44324940    -0.15800
C3016       C  0.95962483  0.51535125  0.42029149     0.36600
N3017       N  0.99483578  0.52024141  0.41730621    -0.90000
H3018       H  0.94957078  0.55380790  0.38462980     0.17700
H3019       H  0.90071322  0.96532652  0.45412576     0.17700
N3020       N  0.85620132  0.49533347  0.42085925    -0.89000
H3021       H  0.00012924  0.54515158  0.42221773     0.35000
H3022       H  0.00196912  0.01597723  0.39383488     0.40100
H3023       H  0.84987459  0.48623125  0.39760978     0.39800
H3024       H  0.84108927  0.51518407  0.42768946     0.34600
C3025       C  0.50784217  0.54680651  0.01927647    -0.27100
C3026       C  0.53404487  0.53233996  0.03790562    -0.15200
C3027       C  0.53654824  0.49681225  0.03507132     0.35500
C3028       C  0.01429545  0.97857166  0.01501605    -0.26500
C3029       C  0.49058390  0.49336611  0.99355025    -0.15800
C3030       C  0.48594408  0.52819239  0.49836576     0.36600
N3031       N  0.45773853  0.54515379  0.48471847    -0.90000
H3032       H  0.50400008  0.57332266  0.52069415     0.17700
H3033       H  0.01745187  0.95187396  0.01396439     0.17700
N3034       N  0.56234234  0.47778077  0.05049423    -0.89000
H3035       H  0.46640812  0.56530670  0.47078607     0.35000
H3036       H  0.44350049  0.55457514  0.50423466     0.40100
H3037       H  0.55989347  0.47897368  0.07610551     0.39800
H3038       H  0.58590601  0.98647787  0.04257313     0.34600
C3039       C  0.55754510  0.55614343  0.55907290    -0.03300
C3040       C  0.87914952  0.55643319  0.87929788    -0.03300
C3041       C  0.88106720  0.88198371  0.55700003    -0.03300
C3042       C  0.55596623  0.87787638  0.88102081    -0.03300
C3043       C  0.97061754  0.97029242  0.96840143    -0.03300
C3044       C  0.82874706  0.83113831  0.78335255     0.79500
N3045       N  0.86129877  0.82206720  0.77633837    -0.78800
C3046       C  0.88501295  0.84603931  0.77170335     0.81900
N3047       N  0.87598126  0.87766425  0.77303842    -0.78800
C3048       C  0.84427762  0.88679114  0.77103909     0.82000
N3049       N  0.82001958  0.86345778  0.77569029    -0.80500
C3050       C  0.78568195  0.83299225  0.83116230     0.79500
N3051       N  0.77665518  0.82331294  0.86267304    -0.78800
C3052       C  0.77407284  0.84682507  0.88683966     0.81900
N3053       N  0.77907958  0.87860655  0.87906221    -0.78800
C3054       C  0.77735910  0.88885155  0.84789586     0.82000
N3055       N  0.78111790  0.86605505  0.82345292    -0.80500
C3056       C  0.65041960  0.83292852  0.60599954     0.79500
N3057       N  0.65831515  0.82415183  0.57400937    -0.78800
C3058       C  0.66351999  0.84827359  0.55087824     0.81900
N3059       N  0.66163769  0.87989782  0.55987149    -0.78800
C3060       C  0.66216394  0.88895743  0.59138580     0.82000
N3061       N  0.65681393  0.86538804  0.61501153    -0.80500
C3062       C  0.83003539  0.65327354  0.60530954     0.79500
N3063       N  0.86270496  0.65972664  0.61413473    -0.78800
C3064       C  0.88642563  0.66395805  0.59020613     0.81900
N3065       N  0.87734144  0.66213379  0.55879927    -0.78800
C3066       C  0.84565123  0.66534970  0.54990107     0.82000
N3067       N  0.82119184  0.66140561  0.57326716    -0.80500
O3068       O  0.67901859  0.87299334  0.94032686    -0.75200
O3069       O  0.75724325  0.87521018  0.99581552    -0.75200
O3070       O  0.74592175  0.87115247  0.93073350    -0.75300
O3071       O  0.69002559  0.87177561  0.50538820    -0.75300
O3072       O  0.69018903  0.81643338  0.50782724    -0.75300
O3073       O  0.74712171  0.81578960  0.93068277    -0.75200
O3074       O  0.75630202  0.81987054  0.99689106    -0.75200
O3075       O  0.68109872  0.81764219  0.94160147    -0.75300
Ni3076     Ni  0.71802654  0.87485005  0.96802765     1.25400
Ni3077     Ni  0.71871928  0.81547807  0.96929525     1.25400
C3078       C  0.66695668  0.84483392  0.93249869     0.87000
C3079       C  0.77001011  0.84761922  0.00481115     0.86900
C3080       C  0.75548260  0.84356287  0.91791465     0.86900
C3081       C  0.68114711  0.84446205  0.51938187     0.87100
O3082       O  0.81579759  0.74881135  0.92930322    -0.75200
O3083       O  0.81515350  0.69203805  0.50585060    -0.75200
O3084       O  0.81864254  0.75809699  0.99546962    -0.75300
O3085       O  0.81862017  0.68267677  0.94008892    -0.75300
O3086       O  0.87423351  0.68094486  0.94027719    -0.75300
O3087       O  0.87428774  0.75909504  0.99549450    -0.75200
O3088       O  0.87081628  0.69189086  0.50493836    -0.75200
O3089       O  0.87145654  0.74809158  0.93009949    -0.75300
Ni3090     Ni  0.81502000  0.72048185  0.96770360     1.25400
Ni3091     Ni  0.87471609  0.72013182  0.96778998     1.25400
C3092       C  0.84371436  0.75757874  0.91699513     0.87000
C3093       C  0.84291130  0.68310473  0.51827329     0.86900
C3094       C  0.84642294  0.77163393  0.00416775     0.86900
C3095       C  0.84629096  0.66843900  0.93194686     0.87100
C3096       C  0.85870416  0.85927457  0.53313243     0.79500
N3097       N  0.82630114  0.86833638  0.52532114    -0.78800
C3098       C  0.80268782  0.84423939  0.52094046     0.81900
N3099       N  0.81162830  0.81287291  0.02340101    -0.78800
C3100       C  0.84354036  0.80356492  0.52072467     0.82000
N3101       N  0.86779911  0.82695113  0.52567292    -0.80500
C3102       C  0.83026380  0.78765922  0.83046430     0.79500
N3103       N  0.82186916  0.78039203  0.86281649    -0.78800
C3104       C  0.84656114  0.77582559  0.88562028     0.81900
N3105       N  0.87811075  0.77817555  0.87594663    -0.78800
C3106       C  0.88640935  0.77500310  0.84432449     0.82000
N3107       N  0.86234126  0.77943162  0.82083103    -0.80500
C3108       C  0.60866024  0.82954540  0.65409392     0.79500
N3109       N  0.57613889  0.82056957  0.66110797    -0.78800
C3110       C  0.55260188  0.84478987  0.66511889     0.81900
N3111       N  0.56176504  0.87633781  0.66247974    -0.78800
C3112       C  0.59345260  0.88518464  0.66588893     0.82000
N3113       N  0.61770385  0.86155861  0.66242139    -0.80500
O3114       O  0.94176573  0.87340455  0.68050051    -0.75200
O3115       O  0.99781467  0.87116351  0.75803075    -0.75200
O3116       O  0.50767668  0.86944422  0.69206297    -0.75300
O3117       O  0.93180524  0.86977164  0.74697645    -0.75300
O3118       O  0.92972400  0.81443978  0.74683810    -0.75300
O3119       O  0.50786244  0.81408109  0.69114481    -0.75200
O3120       O  0.99682248  0.81582739  0.75625950    -0.75200
O3121       O  0.94095774  0.81806802  0.68147690    -0.75300
Ni3122     Ni  0.96973912  0.87290032  0.71939359     1.25400
Ni3123     Ni  0.96877780  0.81353645  0.71887217     1.25400
C3124       C  0.93291160  0.84587238  0.66779384     0.87000
C3125       C  0.00617063  0.84305219  0.76998377     0.86900
C3126       C  0.52073800  0.84178289  0.68278007     0.86900
C3127       C  0.91757047  0.84236061  0.75541723     0.87100
O3128       O  0.92970041  0.74665870  0.81327067    -0.75200
O3129       O  0.50597364  0.68734063  0.81484256    -0.75200
O3130       O  0.93822281  0.68058160  0.81553762    -0.75300
O3131       O  0.99704469  0.75338580  0.81715816    -0.75300
O3132       O  0.99668758  0.75406476  0.87223314    -0.75300
O3133       O  0.93657310  0.67935936  0.87062126    -0.75200
O3134       O  0.50330292  0.68710264  0.86987955    -0.75200
O3135       O  0.93045503  0.74620809  0.86833399    -0.75300
Ni3136     Ni  0.96772752  0.71701007  0.81309772     1.25400
Ni3137     Ni  0.96663233  0.71659710  0.87215555     1.25400
C3138       C  0.91747787  0.75586259  0.84088870     0.87000
C3139       C  0.51749216  0.67819070  0.84279244     0.86900
C3140       C  0.92799369  0.66749905  0.84275937     0.86900
C3141       C  0.00607282  0.76642922  0.84470467     0.87100
C3142       C  0.53567942  0.85372956  0.85720121     0.79500
N3143       N  0.52893002  0.82118159  0.86577614    -0.78800
C3144       C  0.52451201  0.79807929  0.84159572     0.81900
N3145       N  0.02615749  0.80749913  0.81022660    -0.78800
C3146       C  0.52367578  0.83941886  0.80172997     0.82000
N3147       N  0.52782074  0.86314913  0.82533611    -0.80500
C3148       C  0.60582320  0.64953092  0.83158206     0.79500
N3149       N  0.61485705  0.65746588  0.86359879    -0.78800
C3150       C  0.59067674  0.66231402  0.88704976     0.81900
N3151       N  0.55886359  0.66024130  0.87824867    -0.78800
C3152       C  0.54961491  0.66108602  0.84679317     0.82000
N3153       N  0.57315100  0.65610796  0.82287951    -0.80500
C3154       C  0.82885885  0.60895274  0.65228755     0.79500
N3155       N  0.86148927  0.61761413  0.65911757    -0.78800
C3156       C  0.88482286  0.59325253  0.66353020     0.81900
N3157       N  0.87538011  0.56179459  0.66144476    -0.78800
C3158       C  0.84356948  0.55314829  0.66434324     0.82000
N3159       N  0.81953874  0.57697994  0.66073567    -0.80500
O3160       O  0.87149520  0.94166431  0.67950695    -0.75200
O3161       O  0.87058150  0.99845474  0.75611499    -0.75200
O3162       O  0.86843927  0.93281063  0.74573781    -0.75300
O3163       O  0.86793010  0.50732792  0.68977310    -0.75300
O3164       O  0.81226806  0.50838693  0.68951744    -0.75300
O3165       O  0.81278091  0.93110070  0.74563823    -0.75200
O3166       O  0.81492716  0.99780461  0.75484966    -0.75200
O3167       O  0.81583464  0.94170196  0.68029276    -0.75300
Ni3168     Ni  0.87165481  0.97018821  0.71774399     1.25400
Ni3169     Ni  0.81194963  0.96981356  0.71751372     1.25400
C3170       C  0.84370549  0.93242326  0.66733086     0.87000
C3171       C  0.84251240  0.00674476  0.76847045     0.86900
C3172       C  0.84080668  0.91892418  0.75430240     0.86900
C3173       C  0.84021284  0.52097385  0.68112399     0.87100
O3174       O  0.68014477  0.93772982  0.87482954    -0.75200
O3175       O  0.75516904  0.99853070  0.87378303    -0.75200
O3176       O  0.68738572  0.50375801  0.87236353    -0.75300
O3177       O  0.74807607  0.93240388  0.87229864    -0.75300
O3178       O  0.74893427  0.93193140  0.81721935    -0.75300
O3179       O  0.68581023  0.50444739  0.81729756    -0.75200
O3180       O  0.75218228  0.99908034  0.81879043    -0.75200
O3181       O  0.68227235  0.93718258  0.81980453    -0.75300
Ni3182     Ni  0.71768839  0.96813420  0.87540684     1.25400
Ni3183     Ni  0.71724424  0.96812996  0.81639246     1.25400
C3184       C  0.66852559  0.92814389  0.84707332     0.87000
C3185       C  0.76633456  0.00808801  0.84571800     0.86900
C3186       C  0.67717020  0.51663991  0.84510486     0.86900
C3187       C  0.75831782  0.91990379  0.84490814     0.87100
C3188       C  0.85455811  0.53612031  0.85568465     0.79500
N3189       N  0.86342016  0.52794317  0.82367645    -0.78800
C3190       C  0.83909346  0.52352800  0.80042075     0.81900
N3191       N  0.80731755  0.02593107  0.80954364    -0.78800
C3192       C  0.79814183  0.52544853  0.84099143     0.82000
N3193       N  0.82176193  0.53044119  0.86454063    -0.80500
C3194       C  0.65068560  0.60428344  0.83175088     0.79500
N3195       N  0.65916000  0.61367354  0.86337013    -0.78800
C3196       C  0.66204170  0.58995948  0.88744527     0.81900
N3197       N  0.65775347  0.55818243  0.87958508    -0.78800
C3198       C  0.65918623  0.54823780  0.84838717     0.82000
N3199       N  0.65558779  0.57130841  0.82403847    -0.80500
O3200       O  0.62431988  0.74472985  0.50742284    -0.75200
O3201       O  0.62247093  0.68800620  0.93080454    -0.75200
O3202       O  0.61991348  0.75383716  0.94112161    -0.75300
O3203       O  0.62072913  0.67890953  0.99742769    -0.75300
O3204       O  0.56505377  0.67829372  0.99868132    -0.75300
O3205       O  0.56424940  0.75497223  0.94177795    -0.75200
O3206       O  0.56684388  0.68823814  0.93299064    -0.75200
O3207       O  0.56868133  0.74473483  0.50712994    -0.75300
Ni3208     Ni  0.62386581  0.71634012  0.96918914     1.25400
Ni3209     Ni  0.56416722  0.71656684  0.97020288     1.25400
C3210       C  0.59661229  0.75377796  0.52005614     0.87000
C3211       C  0.59433481  0.67940491  0.91893960     0.86900
C3212       C  0.59202148  0.76739569  0.93272294     0.86900
C3213       C  0.59300624  0.66583858  0.00704379     0.87100
C3214       C  0.57854783  0.85525838  0.90470402     0.79500
N3215       N  0.61074677  0.86457285  0.91232117    -0.78800
C3216       C  0.63480133  0.84085929  0.91595872     0.81900
N3217       N  0.62635031  0.80913246  0.91352110    -0.78800
C3218       C  0.59477093  0.79955620  0.91576952     0.82000
N3219       N  0.57008663  0.82269906  0.91172021    -0.80500
O3220       O  0.50749985  0.74834280  0.62126833    -0.75200
O3221       O  0.93069514  0.69004587  0.62130581    -0.75200
O3222       O  0.99793846  0.68216678  0.61921612    -0.75300
O3223       O  0.94028379  0.75582960  0.61840013    -0.75300
O3224       O  0.94077297  0.75766841  0.56335820    -0.75300
O3225       O  0.99838739  0.68046505  0.56417124    -0.77000
O3226       O  0.93217246  0.69058895  0.56624514    -0.75200
O3227       O  0.50687865  0.74768259  0.56620463    -0.75300
Ni3228     Ni  0.96908106  0.71904496  0.62203443     1.25400
Ni3229     Ni  0.96957880  0.71904320  0.56299798     1.25400
C3230       C  0.51995477  0.75723967  0.59360290     0.87000
C3231       C  0.91848169  0.68138023  0.59359070     0.86900
C3232       C  0.00701834  0.66834824  0.59204489     0.86900
C3233       C  0.93181602  0.76982861  0.59106184     0.87100
C3234       C  0.90299113  0.85813722  0.58015190     0.79500
N3235       N  0.91116157  0.86709112  0.61217901    -0.78800
C3236       C  0.91649487  0.84286354  0.63539019     0.81900
N3237       N  0.91487193  0.81136407  0.62625844    -0.78800
C3238       C  0.91534551  0.80224699  0.59486768     0.82000
N3239       N  0.90974772  0.82571047  0.57111862    -0.80500
C3240       C  0.60774353  0.78594310  0.60660074     0.79500
N3241       N  0.61751403  0.77667130  0.57507663    -0.78800
C3242       C  0.59363177  0.77247350  0.55120633     0.81900
N3243       N  0.56174206  0.77656795  0.55926359    -0.78800
C3244       C  0.55175059  0.77528432  0.59047407     0.82000
N3245       N  0.57476292  0.78007512  0.61479780    -0.80500
O3246       O  0.68020849  0.56283985  0.99719869    -0.75200
O3247       O  0.75694171  0.56408380  0.93975957    -0.75200
O3248       O  0.74754866  0.56605918  0.50499373    -0.75300
O3249       O  0.68988384  0.56591260  0.93177142    -0.75300
O3250       O  0.68873820  0.62128853  0.93061580    -0.75300
O3251       O  0.74757927  0.62143474  0.50600723    -0.75200
O3252       O  0.75479614  0.61945322  0.93975730    -0.75200
O3253       O  0.68087118  0.61822100  0.99708182    -0.75300
Ni3254     Ni  0.71860640  0.56275628  0.96844629     1.25400
Ni3255     Ni  0.71784531  0.62216635  0.96841212     1.25400
C3256       C  0.66767797  0.59048732  0.00608820     0.87000
C3257       C  0.76885659  0.59211858  0.93109318     0.86900
C3258       C  0.75689219  0.59361806  0.51799408     0.86900
C3259       C  0.68030439  0.59337244  0.91851274     0.87100
C3260       C  0.85697925  0.57973327  0.90295886     0.79500
N3261       N  0.86663349  0.61183303  0.91095693    -0.78800
C3262       C  0.84272655  0.63576623  0.91587402     0.81900
N3263       N  0.81085852  0.62723907  0.91398982    -0.78800
C3264       C  0.80119666  0.59582547  0.91478300     0.82000
N3265       N  0.82428207  0.57153909  0.90982274    -0.80500
O3266       O  0.75611290  0.93920926  0.56541137    -0.75200
O3267       O  0.68176174  0.00077730  0.56691469    -0.75200
O3268       O  0.74938848  0.50502351  0.56723284    -0.75300
O3269       O  0.68850020  0.93470786  0.56839532    -0.75300
O3270       O  0.68933857  0.93221340  0.62340034    -0.75300
O3271       O  0.75024809  0.50689797  0.62226844    -0.75200
O3272       O  0.68388190  0.99963845  0.62195296    -0.75200
O3273       O  0.75568780  0.93984984  0.62047122    -0.75300
Ni3274     Ni  0.71888940  0.97002780  0.56501889     1.25400
Ni3275     Ni  0.71981467  0.96971453  0.62401584     1.25400
C3276       C  0.76844899  0.93002865  0.59307009     0.87000
C3277       C  0.67022777  0.00955116  0.59502475     0.86900
C3278       C  0.75916084  0.51852409  0.59417003     0.86900
C3279       C  0.67966076  0.92076780  0.59558889     0.87100
C3280       C  0.85616666  0.90131989  0.58115468     0.79500
N3281       N  0.86518926  0.90962324  0.61300648    -0.78800
C3282       C  0.84090412  0.91341200  0.63649289     0.81900
N3283       N  0.80916309  0.90932068  0.62789575    -0.78800
C3284       C  0.79984357  0.91138992  0.59644438     0.82000
N3285       N  0.82344520  0.90751767  0.57246758    -0.80500
C3286       C  0.78744165  0.60609205  0.60411272     0.79500
N3287       N  0.77978839  0.61473265  0.57198426    -0.78800
C3288       C  0.77559034  0.59044715  0.54893835     0.81900
N3289       N  0.77867131  0.55885360  0.55810865    -0.78800
C3290       C  0.77714481  0.54994560  0.58973428     0.82000
N3291       N  0.78119931  0.57365556  0.61320969    -0.80500
O3292       O  0.56471024  0.93829692  0.75861135    -0.75200
O3293       O  0.56509088  0.99606546  0.68211826    -0.75200
O3294       O  0.56834102  0.93009554  0.69215101    -0.75300
O3295       O  0.56717247  0.50423816  0.74872993    -0.75300
O3296       O  0.62282942  0.50609835  0.74940796    -0.75300
O3297       O  0.62400635  0.92942908  0.69238560    -0.75200
O3298       O  0.62071516  0.99632905  0.68397374    -0.75200
O3299       O  0.62037100  0.93906302  0.75783535    -0.75300
Ni3300     Ni  0.56414998  0.96709523  0.72033802     1.25400
Ni3301     Ni  0.62383579  0.96768910  0.72093906     1.25400
C3302       C  0.59266154  0.92974171  0.77105204     0.87000
C3303       C  0.59315079  0.00535617  0.67033343     0.86900
C3304       C  0.59626978  0.91688701  0.68345780     0.86900
C3305       C  0.59458000  0.51812284  0.75765717     0.87100
C3306       C  0.58034221  0.89912936  0.85779389     0.79500
N3307       N  0.57151797  0.90741876  0.82584359    -0.78800
C3308       C  0.59590157  0.91193191  0.80261708     0.81900
N3309       N  0.62765630  0.90916842  0.81163442    -0.78800
C3310       C  0.63668910  0.91041119  0.84316740     0.82000
N3311       N  0.61289669  0.90574748  0.86685691    -0.80500
O3312       O  0.50644744  0.62342526  0.74668017    -0.75200
O3313       O  0.92928160  0.62377109  0.68987375    -0.75200
O3314       O  0.93895865  0.62027695  0.75541100    -0.75300
O3315       O  0.99645346  0.62040738  0.68160054    -0.75300
O3316       O  0.99628687  0.56503182  0.68029639    -0.75300
O3317       O  0.93825605  0.56490098  0.75618849    -0.75200
O3318       O  0.93015524  0.56840268  0.68977041    -0.75200
O3319       O  0.50466325  0.56807709  0.74651741    -0.75300
Ni3320     Ni  0.96773374  0.62381295  0.71848704     1.25400
Ni3321     Ni  0.96727871  0.56440786  0.71821041     1.25400
C3322       C  0.51861445  0.59547244  0.75523129     0.87000
C3323       C  0.91681428  0.59614030  0.68092487     0.86900
C3324       C  0.92947616  0.59263660  0.76848263     0.86900
C3325       C  0.00538646  0.59282630  0.66822831     0.87100
C3326       C  0.89996711  0.58046187  0.85535338     0.79500
N3327       N  0.90608596  0.61300697  0.86367015    -0.78800
C3328       C  0.90948614  0.63638427  0.83950191     0.81900
N3329       N  0.90698763  0.62713605  0.80815379    -0.78800
C3330       C  0.91098882  0.59552810  0.79965946     0.82000
N3331       N  0.90792633  0.57144459  0.82339398    -0.80500
C3332       C  0.60678769  0.60597248  0.78484959     0.79500
N3333       N  0.57465027  0.61551552  0.77673126    -0.78800
C3334       C  0.55069641  0.59173244  0.77223526     0.81900
N3335       N  0.55915448  0.55996263  0.77468985    -0.78800
C3336       C  0.59073581  0.55031901  0.77385149     0.82000
N3337       N  0.61505054  0.57336721  0.77845447    -0.80500
C3338       C  0.53535881  0.58021731  0.58160281     0.79500
N3339       N  0.52746766  0.57170115  0.61373385    -0.78800
C3340       C  0.52333072  0.59615105  0.63669436     0.81900
N3341       N  0.02585390  0.62743609  0.62750750    -0.78800
C3342       C  0.52435923  0.63640910  0.59579982     0.82000
N3343       N  0.52856480  0.61257839  0.57224671    -0.80500
C3344       C  0.58235425  0.53743110  0.58381038     0.79500
N3345       N  0.61525023  0.53190886  0.57540640    -0.78800
C3346       C  0.63858352  0.52706915  0.59927911     0.81900
N3347       N  0.62875336  0.02720233  0.63074804    -0.78800
C3348       C  0.59706805  0.52415392  0.63921350     0.82000
N3349       N  0.57302567  0.52882181  0.61565587    -0.80500
C3350       C  0.58003969  0.57859824  0.53507297     0.79500
N3351       N  0.61221253  0.56936626  0.52683564    -0.78800
C3352       C  0.63626562  0.59333245  0.52399237     0.81900
N3353       N  0.62742819  0.62493311  0.02800852    -0.78800
C3354       C  0.59613315  0.63435212  0.52510488     0.82000
N3355       N  0.57158470  0.61110388  0.52837382    -0.80500
C3356       C  0.63009212  0.62840749  0.80789710    -0.03300
C3357       C  0.80607622  0.63109828  0.62829139    -0.03300
C3358       C  0.80573824  0.80881852  0.80711548    -0.03300
C3359       C  0.63149399  0.80777872  0.62996488    -0.03300
C3360       C  0.71831494  0.71812280  0.71952579    -0.03300
C3361       C  0.64069401  0.75817095  0.66942997    -0.27100
C3362       C  0.65541718  0.78441153  0.65134783    -0.15200
C3363       C  0.69106294  0.78675911  0.65470168     0.35500
C3364       C  0.70914013  0.76454695  0.67538054    -0.26500
C3365       C  0.69425595  0.73966800  0.69543356    -0.15800
C3366       C  0.65884066  0.73554299  0.68965009     0.36600
N3367       N  0.64012600  0.70708851  0.70018317    -0.90000
H3368       H  0.61404132  0.75429626  0.66708237     0.17700
H3369       H  0.73587323  0.76785922  0.67670201     0.17700
N3370       N  0.71057655  0.81182246  0.63870139    -0.89000
H3371       H  0.63016223  0.71038397  0.72370961     0.35000
H3372       H  0.65326599  0.68498949  0.69722027     0.40100
H3373       H  0.70251479  0.83517809  0.64642414     0.39800
H3374       H  0.70902910  0.80908646  0.61311740     0.34600
C3375       C  0.78426346  0.75072253  0.78672174    -0.27100
C3376       C  0.78095603  0.78577215  0.78629515    -0.15200
C3377       C  0.75413678  0.79779058  0.76608555     0.35500
C3378       C  0.73473179  0.77607571  0.74625682    -0.26500
C3379       C  0.73993124  0.74122069  0.74424006    -0.15800
C3380       C  0.76469622  0.72877960  0.76705073     0.36600
N3381       N  0.77224433  0.69401955  0.77061641    -0.90000
H3382       H  0.80304247  0.73937269  0.80221785     0.17700
H3383       H  0.71423892  0.78739555  0.73313965     0.17700
N3384       N  0.74420273  0.83190790  0.76570942    -0.89000
H3385       H  0.79739544  0.69062113  0.76465561     0.35000
H3386       H  0.75918037  0.67945084  0.75401449     0.40100
H3387       H  0.76403776  0.84672863  0.75805534     0.39800
H3388       H  0.73582724  0.83863888  0.78916494     0.34600
C3389       C  0.72763994  0.67416706  0.67272503    -0.27100
C3390       C  0.74225917  0.69749801  0.69444045    -0.15200
C3391       C  0.77781464  0.70120360  0.69016378     0.35500
C3392       C  0.79648049  0.67894113  0.66967837    -0.26500
C3393       C  0.78186273  0.65408464  0.64982361    -0.15800
C3394       C  0.74601885  0.65268621  0.65162837     0.36600
N3395       N  0.72646532  0.62948072  0.63332851    -0.90000
H3396       H  0.70085331  0.67149203  0.67282245     0.17700
H3397       H  0.82332823  0.68182628  0.66845131     0.17700
N3398       N  0.79545668  0.72841356  0.70488115    -0.89000
H3399       H  0.73306162  0.60533981  0.64012832     0.35000
H3400       H  0.72957277  0.63372904  0.60807207     0.40100
H3401       H  0.78781840  0.75018138  0.69301527     0.39800
H3402       H  0.82118415  0.72650753  0.70093669     0.34600
C3403       C  0.65334417  0.68637973  0.78750759    -0.27100
C3404       C  0.65458624  0.65110960  0.78601939    -0.15200
C3405       C  0.67928273  0.63832836  0.76356470     0.35500
C3406       C  0.69903657  0.65953400  0.74345007    -0.26500
C3407       C  0.69659997  0.69462002  0.74360524    -0.15800
C3408       C  0.67390852  0.70760985  0.76758614     0.36600
N3409       N  0.67023814  0.74282141  0.77087914    -0.90000
H3410       H  0.63594322  0.69827435  0.80414417     0.17700
H3411       H  0.71730154  0.64744978  0.72802552     0.17700
N3412       N  0.68628914  0.60369325  0.76034107    -0.89000
H3413       H  0.67574098  0.74912474  0.79529599     0.35000
H3414       H  0.64530471  0.74906235  0.76643342     0.40100
H3415       H  0.66539441  0.59125839  0.75156295     0.39800
H3416       H  0.69465322  0.59416405  0.78278482     0.34600
C3417       C  0.97934703  0.92578652  0.92290388    -0.27100
C3418       C  0.49495990  0.94903382  0.94427981    -0.15200
C3419       C  0.53095982  0.95063610  0.94078026     0.35500
C3420       C  0.54864611  0.92699844  0.92139690    -0.26500
C3421       C  0.53315556  0.90225179  0.90220486    -0.15800
C3422       C  0.49751516  0.90234002  0.90324849     0.36600
N3423       N  0.97839265  0.87948373  0.88390648    -0.90000
H3424       H  0.95234086  0.92425070  0.92293051     0.17700
H3425       H  0.57560723  0.92896051  0.92046034     0.17700
N3426       N  0.55129486  0.97713293  0.95310951    -0.89000
H3427       H  0.96268484  0.89278826  0.86805603     0.35000
H3428       H  0.46417937  0.86479755  0.90170887     0.40100
H3429       H  0.56405030  0.96939273  0.97426574     0.39800
H3430       H  0.53874401  0.99949111  0.95609788     0.34600
C3431       C  0.93175850  0.89206888  0.51784015    -0.27100
C3432       C  0.90464389  0.90583471  0.53561493    -0.15200
C3433       C  0.90130266  0.94110395  0.53263069     0.35500
C3434       C  0.92325694  0.96016184  0.51215023    -0.26500
C3435       C  0.94889458  0.94613397  0.49231480    -0.15800
C3436       C  0.95424448  0.91131883  0.49805923     0.36600
N3437       N  0.98309132  0.89501423  0.98575011    -0.90000
H3438       H  0.93648710  0.86568485  0.52014777     0.17700
H3439       H  0.91930537  0.98674992  0.51089154     0.17700
N3440       N  0.87522521  0.95839641  0.54957353    -0.89000
H3441       H  0.97559773  0.87472347  0.97151970     0.35000
H3442       H  0.99643697  0.88587517  0.00601354     0.40100
H3443       H  0.86055450  0.97065285  0.53200464     0.39800
H3444       H  0.88614555  0.97629506  0.56476367     0.34600
C3445       C  0.93781411  0.53560584  0.90071822    -0.27100
C3446       C  0.90250634  0.53208114  0.90060061    -0.15200
C3447       C  0.89035932  0.50543962  0.92104041     0.35500
C3448       C  0.91207205  0.48613566  0.94116615    -0.26500
C3449       C  0.94699142  0.49147983  0.94345308    -0.15800
C3450       C  0.95952557  0.51571682  0.92072328     0.36600
N3451       N  0.99471191  0.52086629  0.91791971    -0.90000
H3452       H  0.94937530  0.55429952  0.88525725     0.17700
H3453       H  0.90057377  0.96583096  0.95452178     0.17700
N3454       N  0.85608478  0.49558383  0.92143591    -0.89000
H3455       H  0.99980637  0.54576532  0.92308910     0.35000
H3456       H  0.00169393  0.01539516  0.89328361     0.40100
H3457       H  0.84958989  0.48645306  0.89824983     0.39800
H3458       H  0.84107741  0.51550281  0.92831696     0.34600
C3459       C  0.50800819  0.54679157  0.51893946    -0.27100
C3460       C  0.53416099  0.53232533  0.53766001    -0.15200
C3461       C  0.53660886  0.49679360  0.53483512     0.35500
C3462       C  0.01436084  0.97849571  0.51496323    -0.26500
C3463       C  0.49047965  0.49326973  0.49342617    -0.15800
C3464       C  0.48585557  0.52822229  0.99865800     0.36600
N3465       N  0.45750895  0.54508944  0.98518347    -0.90000
H3466       H  0.50373882  0.57331503  0.02112873     0.17700
H3467       H  0.01769448  0.95182734  0.51379715     0.17700
N3468       N  0.56247843  0.47779761  0.55017243    -0.89000
H3469       H  0.46601798  0.56535711  0.97132051     0.35000
H3470       H  0.44327598  0.55432451  0.00479413     0.40100
H3471       H  0.56006927  0.47895526  0.57578791     0.39800
H3472       H  0.58575606  0.98652907  0.54230687     0.34600
loop_ 
_geom_bond_atom_site_label_1 
_geom_bond_atom_site_label_2 
_geom_bond_distance 
_geom_bond_site_symmetry_2 
_ccdc_geom_bond_type 
C1          C300   1.600       .  S
C1          C306   1.597       .  S
C1          C312   1.600       .  S
C1          C422   1.597       .  S
C2          C150   1.601       .  S
C2          C222   1.608       .  S
C2          C288   1.602       .  S
C2          C408   1.605       .  S
C3           C58   1.607       .  S
C3          C196   1.603       .  S
C3          C242   1.598       .  S
C3          C394   1.599       .  S
C4          C104   1.597       .  S
C4          C176   1.602       .  S
C4          C268   1.600       .  S
C4          C383   1.593       .  S
C5         C2116   1.619       .  S
C5          C831   1.622       .  S
C5         C1279   1.619       .  S
C5         C3463   1.606       .  S
C6          C320   1.605       .  S
C6            N7   1.383       .  A
C6           N11   1.383       .  A
N7            C8   1.366       .  A
C8            N9   1.324       .  A
C8           C89   1.467       .  S
N9           C10   1.324       .  A
C10          N11   1.365       .  A
C10         C134   1.466       .  S
C12         C320   1.595       .  S
C12          N13   1.380       .  A
C12          N17   1.379       .  A
N13          C14   1.367       .  A
C14          N15   1.332       .  A
C14          C42   1.466       .  S
N15          C16   1.328       .  A
C16          N17   1.360       .  A
C16         C149   1.470       .  S
C18         C321   1.592       .  S
C18          N19   1.379       .  A
C18          N23   1.383       .  A
N19          C20   1.363       .  A
C20          N21   1.327       .  A
C20          C43   1.464       .  S
N21          C22   1.328       .  A
C22          N23   1.362       .  A
C22         C241   1.471       .  S
C24         C319   1.605       .  S
C24          N25   1.383       .  A
C24          N29   1.382       .  A
N25          C26   1.366       .  A
C26          N27   1.326       .  A
C26         C193   1.471       .  S
N27          C28   1.327       .  A
C28          N29   1.369       .  A
C28          C55   1.467       .  S
O30         Ni38   1.928       .  S
O30          C40   1.274       .  A
O31         Ni38   1.934       .  S
O31          C41   1.275       .  A
O32         Ni38   1.882       .  S
O32          C42   1.286       .  A
O33        Ni472   1.885   1_554  S
O33          C43   1.286       .  A
O34        Ni473   1.929   1_554  S
O34          C43   1.275       .  A
O35         Ni39   1.931       .  S
O35          C42   1.275       .  A
O36         Ni39   1.885       .  S
O36          C41   1.287       .  A
O37         Ni39   1.883       .  S
O37          C40   1.286       .  A
Ni38        O467   1.884       .  S
Ni38        Ni39   2.391       .  S
Ni39        O468   1.930       .  S
C40         C178   1.463       .  S
C41         C494   1.471       .  S
O44         Ni52   1.924       .  S
O44          C54   1.273       .  A
O45        Ni486   1.924   1_554  S
O45          C55   1.272       .  A
O46         Ni52   1.895       .  S
O46          C56   1.290       .  A
O47         Ni52   1.897       .  S
O47          C57   1.290       .  A
O48         Ni53   1.934       .  S
O48          C57   1.274       .  A
O49         Ni53   1.932       .  S
O49          C56   1.274       .  A
O50        Ni487   1.893   1_554  S
O50          C55   1.289       .  A
O51         Ni53   1.898       .  S
O51          C54   1.289       .  A
Ni52        O479   1.924       .  S
Ni52        Ni53   2.391       .  S
Ni53        O484   1.893       .  S
C54          C66   1.469       .  S
C56         C496   1.474       .  S
C57         C224   1.476       .  S
C58          N59   1.385       .  A
C58          N63   1.385       .  A
N59          C60   1.368       .  A
C60         N495   1.325       .  A
C60         C475   1.471       .  S
N61         C494   1.325       .  A
N61         C496   1.323       .  A
C62          N63   1.368       .  A
C62         N495   1.323       .  A
C62         C490   1.473       .  S
C64         C320   1.606       .  S
C64          N65   1.381       .  A
C64          N69   1.382       .  A
N65          C66   1.366       .  A
C66          N67   1.326       .  A
N67          C68   1.329       .  A
C68          N69   1.366       .  A
C68         C100   1.469       .  S
C70         C321   1.600       .  S
C70          N71   1.381       .  A
C70          N75   1.382       .  A
N71          C72   1.366       .  A
C72          N73   1.326       .  A
C72          C88   1.467       .  S
N73          C74   1.326       .  A
C74          N75   1.366       .  A
C74         C266   1.468       .  S
O76         Ni84   1.935       .  S
O76          C86   1.275       .  A
O77         Ni84   1.930       .  S
O77          C87   1.275       .  A
O78       Ni1820   1.886   1_455  S
O78          C88   1.287       .  A
O79         Ni84   1.887       .  S
O79          C89   1.287       .  A
O80         Ni85   1.929       .  S
O80          C89   1.274       .  A
O81       Ni1821   1.929   1_455  S
O81          C88   1.274       .  A
O82         Ni85   1.889       .  S
O82          C87   1.287       .  A
O83         Ni85   1.890       .  S
O83          C86   1.288       .  A
Ni84       O1814   1.885       .  S
Ni84        Ni85   2.391       .  S
Ni85       O1817   1.929       .  S
C86         C198   1.474       .  S
C87        C1844   1.467       .  S
O90         Ni98   1.934       .  S
O90         C100   1.276       .  A
O91       Ni1834   1.932   1_455  S
O91         C101   1.276       .  A
O92         Ni98   1.886       .  S
O92         C102   1.286       .  A
O93         Ni98   1.885       .  S
O93         C103   1.286       .  A
O94         Ni99   1.931       .  S
O94         C103   1.275       .  A
O95         Ni99   1.927       .  S
O95         C102   1.275       .  A
O96       Ni1835   1.884   1_455  S
O96         C101   1.286       .  A
O97         Ni99   1.882       .  S
O97         C100   1.286       .  A
Ni98       O1827   1.932       .  S
Ni98        Ni99   2.391       .  S
Ni99       O1832   1.884       .  S
C101        C114   1.467       .  S
C102        C290   1.464       .  S
C103       C1842   1.468       .  S
C104        N105   1.382       .  A
C104        N109   1.381       .  A
N105        C106   1.365       .  A
C106       N1843   1.327       .  A
C106       C1839   1.469       .  S
N107       C1842   1.327       .  A
N107       C1844   1.327       .  A
C108        N109   1.364       .  A
C108       N1843   1.326       .  A
C108       C1823   1.467       .  S
C110        C318   1.608       .  S
C110        N111   1.385       .  A
C110        N115   1.381       .  A
N111        C112   1.369       .  A
C112        N113   1.326       .  A
C112        C173   1.473       .  S
N113        C114   1.327       .  A
C114        N115   1.365       .  A
C116        C319   1.601       .  S
C116        N117   1.380       .  A
C116        N121   1.382       .  A
N117        C118   1.365       .  A
C118        N119   1.326       .  A
C118        C285   1.467       .  S
N119        C120   1.327       .  A
C120        N121   1.367       .  A
C120        C135   1.466       .  S
O122       Ni130   1.929       .  S
O122        C132   1.274       .  A
O123       Ni130   1.928       .  S
O123        C133   1.274       .  A
O124       Ni130   1.884       .  S
O124        C134   1.287       .  A
O125       Ni998   1.887   1_545  S
O125        C135   1.287       .  A
O126       Ni999   1.929   1_545  S
O126        C135   1.274       .  A
O127       Ni131   1.929       .  S
O127        C134   1.274       .  A
O128       Ni131   1.893       .  S
O128        C133   1.288       .  A
O129       Ni131   1.894       .  S
O129        C132   1.288       .  A
Ni130       O993   1.885       .  S
Ni130      Ni131   2.391       .  S
Ni131       O994   1.929       .  S
C132        C244   1.470       .  S
C133       C1020   1.469       .  S
O136       Ni144   1.939       .  S
O136        C146   1.278       .  A
O137       Ni144   1.938       .  S
O137        C147   1.278       .  A
O138      Ni1012   1.887   1_545  S
O138        C148   1.285       .  A
O139       Ni144   1.888       .  S
O139        C149   1.285       .  A
O140       Ni145   1.934       .  S
O140        C149   1.277       .  A
O141      Ni1013   1.932   1_545  S
O141        C148   1.277       .  A
O142       Ni145   1.876       .  S
O142        C147   1.283       .  A
O143       Ni145   1.879       .  S
O143        C146   1.284       .  A
Ni144      O1006   1.886       .  S
Ni144      Ni145   2.389       .  S
Ni145      O1009   1.932       .  S
C146        C272   1.470       .  S
C147       C1022   1.467       .  S
C148        C160   1.468       .  S
C150        N151   1.383       .  A
C150        N155   1.380       .  A
N151        C152   1.368       .  A
C152       N1021   1.327       .  A
C152       C1001   1.469       .  S
N153       C1020   1.327       .  A
N153       C1022   1.328       .  A
C154        N155   1.360       .  A
C154       N1021   1.327       .  A
C154       C1015   1.467       .  S
C156        C318   1.597       .  S
C156        N157   1.379       .  A
C156        N161   1.379       .  A
N157        C158   1.367       .  A
C158        N159   1.331       .  A
C158        C221   1.463       .  S
N159        C160   1.327       .  A
C160        N161   1.360       .  A
O162       Ni604   1.935   1_554  S
O162        C172   1.274       .  A
O163       Ni170   1.932       .  S
O163        C173   1.275       .  A
O164       Ni170   1.893       .  S
O164        C174   1.289       .  A
O165       Ni170   1.892       .  S
O165        C175   1.288       .  A
O166       Ni171   1.922       .  S
O166        C175   1.272       .  A
O167       Ni171   1.925       .  S
O167        C174   1.273       .  A
O168       Ni171   1.896       .  S
O168        C173   1.289       .  A
O169       Ni605   1.894   1_554  S
O169        C172   1.289       .  A
Ni170       O596   1.934       .  S
Ni170      Ni171   2.391       .  S
Ni171       O603   1.893       .  S
C172        C204   1.475       .  S
C174        C180   1.468       .  S
C175        C750   1.463       .  S
C176        N177   1.380       .  A
C176        N181   1.383       .  A
N177        C178   1.364       .  A
C178        N179   1.326       .  A
N179        C180   1.325       .  A
C180        N181   1.368       .  A
O182      Ni1926   1.932   1_455  S
O182        C192   1.275       .  A
O183       Ni190   1.932       .  S
O183        C193   1.275       .  A
O184       Ni190   1.885       .  S
O184        C194   1.286       .  A
O185       Ni190   1.882       .  S
O185        C195   1.286       .  A
O186       Ni191   1.937       .  S
O186        C195   1.276       .  A
O187       Ni191   1.935       .  S
O187        C194   1.276       .  A
O188       Ni191   1.892       .  S
O188        C193   1.288       .  A
O189      Ni1927   1.893   1_455  S
O189        C192   1.288       .  A
Ni190      O1918   1.932       .  S
Ni190      Ni191   2.389       .  S
Ni191      O1925   1.890       .  S
C192        C206   1.472       .  S
C194       C2040   1.470       .  S
C195        C200   1.471       .  S
C196        N197   1.386       .  A
C196        N201   1.384       .  A
N197        C198   1.369       .  A
C198        N199   1.324       .  A
N199        C200   1.324       .  A
C200        N201   1.365       .  A
C202        C321   1.609       .  S
C202        N203   1.386       .  A
C202        N207   1.382       .  A
N203        C204   1.372       .  A
C204        N205   1.328       .  A
N205        C206   1.325       .  A
C206        N207   1.365       .  A
O208       Ni216   1.927       .  S
O208        C218   1.274       .  A
O209       Ni216   1.923       .  S
O209        C219   1.273       .  A
O210       Ni650   1.886   1_554  S
O210        C220   1.286       .  A
O211       Ni216   1.883       .  S
O211        C221   1.286       .  A
O212       Ni217   1.926       .  S
O212        C221   1.274       .  A
O213       Ni651   1.929   1_554  S
O213        C220   1.275       .  A
O214       Ni217   1.882       .  S
O214        C219   1.286       .  A
O215       Ni217   1.887       .  S
O215        C218   1.287       .  A
Ni216       O644   1.887       .  S
Ni216      Ni217   2.392       .  S
Ni217       O647   1.929       .  S
C218        C748   1.466       .  S
C219        C226   1.460       .  S
C220        C250   1.466       .  S
C222        N223   1.388       .  A
C222        N227   1.378       .  A
N223        C224   1.372       .  A
C224        N225   1.324       .  A
N225        C226   1.324       .  A
C226        N227   1.361       .  A
O228       Ni236   1.938       .  S
O228        C238   1.278       .  A
O229       Ni236   1.936       .  S
O229        C239   1.278       .  A
O230      Ni1104   1.875   1_545  S
O230        C240   1.282       .  A
O231       Ni236   1.876       .  S
O231        C241   1.283       .  A
O232       Ni237   1.942       .  S
O232        C241   1.279       .  A
O233      Ni1105   1.939   1_545  S
O233        C240   1.279       .  A
O234       Ni237   1.879       .  S
O234        C239   1.283       .  A
O235       Ni237   1.879       .  S
O235        C238   1.284       .  A
Ni236      O1098   1.876       .  S
Ni236      Ni237   2.388       .  S
Ni237      O1101   1.938       .  S
C238        C246   1.469       .  S
C239       C1176   1.466       .  S
C240        C252   1.467       .  S
C242        N243   1.382       .  A
C242        N247   1.380       .  A
N243        C244   1.367       .  A
C244        N245   1.329       .  A
N245        C246   1.330       .  A
C246        N247   1.362       .  A
C248        C319   1.594       .  S
C248        N249   1.380       .  A
C248        N253   1.379       .  A
N249        C250   1.365       .  A
C250        N251   1.330       .  A
N251        C252   1.330       .  A
C252        N253   1.360       .  A
O254       Ni262   1.931       .  S
O254        C264   1.275       .  A
O255       Ni262   1.934       .  S
O255        C265   1.276       .  A
O256       Ni262   1.886       .  S
O256        C266   1.287       .  A
O257      Ni1130   1.883   1_545  S
O257        C267   1.285       .  A
O258      Ni1131   1.927   1_545  S
O258        C267   1.275       .  A
O259       Ni263   1.930       .  S
O259        C266   1.274       .  A
O260       Ni263   1.890       .  S
O260        C265   1.287       .  A
O261       Ni263   1.888       .  S
O261        C264   1.287       .  A
Ni262      O1125   1.883       .  S
Ni262      Ni263   2.391       .  S
Ni263      O1126   1.928       .  S
C264        C270   1.468       .  S
C265       C1178   1.471       .  S
C267        C298   1.462       .  S
C268        N269   1.381       .  A
C268        N273   1.381       .  A
N269        C270   1.366       .  A
C270        N271   1.328       .  A
N271        C272   1.328       .  A
C272        N273   1.363       .  A
O274      Ni2018   1.928   1_455  S
O274        C284   1.273       .  A
O275       Ni282   1.928       .  S
O275        C285   1.274       .  A
O276       Ni282   1.892       .  S
O276        C286   1.288       .  A
O277       Ni282   1.890       .  S
O277        C287   1.288       .  A
O278       Ni283   1.923       .  S
O278        C287   1.273       .  A
O279       Ni283   1.925       .  S
O279        C286   1.273       .  A
O280       Ni283   1.888       .  S
O280        C285   1.287       .  A
O281      Ni2019   1.887   1_455  S
O281        C284   1.288       .  A
Ni282      O2010   1.929       .  S
Ni282      Ni283   2.392       .  S
Ni283      O2017   1.886       .  S
C284        C296   1.468       .  S
C286        C292   1.467       .  S
C287       C2038   1.464       .  S
C288        N289   1.377       .  A
C288        N293   1.381       .  A
N289        C290   1.363       .  A
C290        N291   1.328       .  A
N291        C292   1.329       .  A
C292        N293   1.368       .  A
C294        C318   1.603       .  S
C294        N295   1.384       .  A
C294        N299   1.379       .  A
N295        C296   1.370       .  A
C296        N297   1.327       .  A
N297        C298   1.323       .  A
C298        N299   1.359       .  A
C300        N301   1.379       .  A
C300        N305   1.383       .  A
N301        C302   1.365       .  A
C302       N2039   1.326       .  A
C302       C2023   1.463       .  S
N303       C2038   1.327       .  A
N303       C2040   1.327       .  A
C304        N305   1.365       .  A
C304       N2039   1.326       .  A
C304       C1930   1.470       .  S
C306        N307   1.378       .  A
C306        N311   1.384       .  A
N307        C308   1.359       .  A
C308       N1177   1.329       .  A
C308       C1107   1.466       .  S
N309       C1176   1.328       .  A
N309       C1178   1.329       .  A
C310        N311   1.368       .  A
C310       N1177   1.330       .  A
C310       C1133   1.471       .  S
C312        N313   1.381       .  A
C312        N317   1.378       .  A
N313        C314   1.368       .  A
C314        N749   1.328       .  A
C314        C652   1.465       .  S
N315        C748   1.328       .  A
N315        C750   1.326       .  A
C316        N317   1.364       .  A
C316        N749   1.326       .  A
C316        C609   1.464       .  S
C318        C366   1.604       .  S
C319        C355   1.599       .  S
C320        C338   1.603       .  S
C321        C324   1.598       .  S
C322        C327   1.623       .  S
C322        C341   1.621       .  S
C322        C352   1.626       .  S
C322        C369   1.611       .  S
C323        C324   1.412       .  A
C323        C328   1.424       .  A
C323        H330   1.083       .  S
C324        C325   1.438       .  A
C325        C326   1.422       .  A
C325        N332   1.429       .  S
C326        C327   1.418       .  A
C326        H331   1.081       .  S
C327        C328   1.448       .  A
C328        N329   1.432       .  S
N329        H333   1.040       .  S
N329        H334   1.041       .  S
N332        H335   1.043       .  S
N332        H336   1.044       .  S
C337        C338   1.419       .  A
C337        C342   1.429       .  A
C337        H344   1.081       .  S
C338        C339   1.434       .  A
C339        C340   1.421       .  A
C339        N346   1.430       .  S
C340        C341   1.421       .  A
C340        H345   1.078       .  S
C341        C342   1.445       .  A
C342        N343   1.439       .  S
N343        H347   1.044       .  S
N343        H348   1.038       .  S
N346        H349   1.040       .  S
N346        H350   1.043       .  S
C351        C352   1.417       .  A
C351        C356   1.422       .  A
C351        H358   1.079       .  S
C352        C353   1.442       .  A
C353        C354   1.432       .  A
C353        N360   1.436       .  S
C354        C355   1.413       .  A
C354        H359   1.083       .  S
C355        C356   1.438       .  A
C356        N357   1.429       .  S
N357        H361   1.043       .  S
N357        H362   1.043       .  S
N360        H363   1.044       .  S
N360        H364   1.045       .  S
C365        C366   1.422       .  A
C365        C370   1.432       .  A
C365        H372   1.081       .  S
C366        C367   1.438       .  A
C367        C368   1.418       .  A
C367        N374   1.429       .  S
C368        C369   1.416       .  A
C368        H373   1.077       .  S
C369        C370   1.429       .  A
C370        N371   1.432       .  S
N371        H375   1.045       .  S
N371        H376   1.045       .  S
N374        H377   1.040       .  S
N374        H378   1.040       .  S
C379       C2116   1.422       .  A
C379       C2120   1.428       .  A
C379        H386   1.083       .  S
C380       C1741   1.619       .  S
C380        C381   1.450   1_655  A
C380       C2115   1.421       .  A
C381        C382   1.424       .  A
C381        N388   1.435       .  S
C382        C383   1.411       .  A
C382        H387   1.083       .  S
C383        C384   1.428   1_455  A
C384       C2115   1.428       .  A
C384       N2121   1.430       .  S
N385       C2120   1.430       .  S
N385        H389   1.046       .  S
N385       H2126   1.046       .  S
N388        H391   1.045       .  S
N388        H392   1.038       .  S
H390       N2121   1.046       .  S
C393        C394   1.415       .  A
C393        C398   1.430   1_554  A
C393        H400   1.083       .  S
C394        C395   1.431       .  A
C395        C396   1.429       .  A
C395        N402   1.430       .  S
C396        C397   1.420   1_554  A
C396        H401   1.083       .  S
C397        C439   1.621       .  S
C397        C398   1.436       .  A
C398        N833   1.431       .  S
N399        C832   1.431       .  S
N399        H403   1.046       .  S
N399        H404   1.046       .  S
N402        H405   1.046       .  S
N402        H406   1.046       .  S
C407        C408   1.421       .  A
C407        C412   1.432       .  A
C407        H414   1.081       .  S
C408        C409   1.437       .  A
C409        C410   1.422   1_545  A
C409        N416   1.429   1_545  S
C410        C411   1.418       .  A
C410       H1283   1.079       .  S
C411        C873   1.618       .  S
C411        C412   1.429   1_565  A
C412        N413   1.429       .  S
N413        H417   1.045       .  S
N413       H1286   1.046       .  S
H415       C1278   1.078       .  S
N416        H419   1.043       .  S
N416        H420   1.040   1_565  S
H418       N1281   1.046       .  S
C421        C422   1.416       .  A
C421        C860   1.428   1_454  A
C421        H862   1.083       .  S
C422        C423   1.439   1_545  A
C423       C3028   1.422       .  A
C423        N430   1.429       .  S
C424       C3027   1.421       .  A
C424       C3029   1.414   1_554  A
C424        H429   1.083       .  S
C425       C3043   1.605       .  S
C425       C3028   1.414   1_656  A
C425        C860   1.432   1_565  A
C426        C855   1.428   1_655  A
C426        C859   1.431   1_545  A
C426        N427   1.431       .  S
N427        H431   1.046       .  S
N427        H432   1.045       .  S
H428        C855   1.083       .  S
N430        H433   1.042       .  S
N430       H1302   1.044       .  S
H434       N1298   1.044       .  S
C435        C734   1.599       .  S
C435        C740   1.597       .  S
C435        C746   1.601       .  S
C435        C856   1.597       .  S
C436        C584   1.603       .  S
C436        C656   1.608       .  S
C436        C722   1.601       .  S
C436        C842   1.607       .  S
C437        C492   1.606       .  S
C437        C630   1.602       .  S
C437        C676   1.599       .  S
C437        C828   1.598       .  S
C438        C538   1.596       .  S
C438        C610   1.601       .  S
C438        C702   1.600       .  S
C438        C817   1.592       .  S
C439       C2550   1.619       .  S
C439       C1713   1.619       .  S
C439       C3029   1.604       .  S
C440        C754   1.605       .  S
C440        N441   1.383       .  A
C440        N445   1.382       .  A
N441        C442   1.367       .  A
C442        N443   1.325       .  A
C442        C523   1.468       .  S
N443        C444   1.324       .  A
C444        N445   1.364       .  A
C444        C568   1.465       .  S
C446        C754   1.595       .  S
C446        N447   1.380       .  A
C446        N451   1.379       .  A
N447        C448   1.368       .  A
C448        N449   1.332       .  A
C448        C476   1.466       .  S
N449        C450   1.327       .  A
C450        N451   1.360       .  A
C450        C583   1.469       .  S
C452        C755   1.592       .  S
C452        N453   1.380       .  A
C452        N457   1.382       .  A
N453        C454   1.363       .  A
C454        N455   1.328       .  A
C454        C477   1.466       .  S
N455        C456   1.328       .  A
C456        N457   1.361       .  A
C456        C675   1.471       .  S
C458        C753   1.604       .  S
C458        N459   1.382       .  A
C458        N463   1.382       .  A
N459        C460   1.366       .  A
C460        N461   1.325       .  A
C460        C627   1.470       .  S
N461        C462   1.326       .  A
C462        N463   1.369       .  A
C462        C489   1.467       .  S
O464       Ni472   1.926       .  S
O464        C474   1.274       .  A
O465       Ni472   1.934       .  S
O465        C475   1.275   1_556  A
O466       Ni472   1.883       .  S
O466        C476   1.286       .  A
O467        C477   1.286       .  A
O468        C477   1.275       .  A
O469       Ni473   1.931       .  S
O469        C476   1.275       .  A
O470       Ni473   1.886       .  S
O470        C475   1.287   1_556  A
O471       Ni473   1.881       .  S
O471        C474   1.286       .  A
Ni472      Ni473   2.391       .  S
C474        C612   1.461       .  S
O478       Ni486   1.925       .  S
O478        C488   1.273       .  A
O479        C489   1.272       .  A
O480       Ni486   1.894       .  S
O480        C490   1.289   1_556  A
O481       Ni486   1.897       .  S
O481        C491   1.290       .  A
O482       Ni487   1.935       .  S
O482        C491   1.274       .  A
O483       Ni487   1.932       .  S
O483        C490   1.274   1_556  A
O484        C489   1.289       .  A
O485       Ni487   1.897       .  S
O485        C488   1.289       .  A
Ni486      Ni487   2.391       .  S
C488        C500   1.469       .  S
C491        C658   1.477       .  S
C492        N493   1.384       .  A
C492        N497   1.385       .  A
N493        C494   1.367       .  A
C496        N497   1.369       .  A
C498        C754   1.606       .  S
C498        N499   1.381       .  A
C498        N503   1.382       .  A
N499        C500   1.366       .  A
C500        N501   1.326       .  A
N501        C502   1.328       .  A
C502        N503   1.367       .  A
C502        C534   1.470       .  S
C504        C755   1.600       .  S
C504        N505   1.380       .  A
C504        N509   1.382       .  A
N505        C506   1.365       .  A
C506        N507   1.327       .  A
C506        C522   1.465       .  S
N507        C508   1.327       .  A
C508        N509   1.367       .  A
C508        C700   1.468       .  S
O510       Ni518   1.935       .  S
O510        C520   1.275       .  A
O511       Ni518   1.930       .  S
O511        C521   1.275       .  A
O512      Ni2254   1.886   1_455  S
O512        C522   1.287       .  A
O513       Ni518   1.888       .  S
O513        C523   1.288       .  A
O514       Ni519   1.930       .  S
O514        C523   1.274       .  A
O515      Ni2255   1.927   1_455  S
O515        C522   1.274       .  A
O516       Ni519   1.889       .  S
O516        C521   1.287       .  A
O517       Ni519   1.889       .  S
O517        C520   1.288       .  A
Ni518      O2248   1.886       .  S
Ni518      Ni519   2.391       .  S
Ni519      O2251   1.929       .  S
C520        C632   1.474       .  S
C521       C2278   1.467       .  S
O524       Ni532   1.934       .  S
O524        C534   1.275       .  A
O525      Ni2268   1.932   1_455  S
O525        C535   1.276       .  A
O526       Ni532   1.884       .  S
O526        C536   1.285       .  A
O527       Ni532   1.884       .  S
O527        C537   1.286       .  A
O528       Ni533   1.931       .  S
O528        C537   1.275       .  A
O529       Ni533   1.927       .  S
O529        C536   1.275       .  A
O530      Ni2269   1.885   1_455  S
O530        C535   1.286       .  A
O531       Ni533   1.884       .  S
O531        C534   1.286       .  A
Ni532      O2261   1.932       .  S
Ni532      Ni533   2.391       .  S
Ni533      O2266   1.886       .  S
C535        C548   1.467       .  S
C536        C724   1.463       .  S
C537       C2276   1.467       .  S
C538        N539   1.381       .  A
C538        N543   1.380       .  A
N539        C540   1.364       .  A
C540       N2277   1.327       .  A
C540       C2273   1.467       .  S
N541       C2276   1.327       .  A
N541       C2278   1.327       .  A
C542       N2277   1.326       .  A
C542        N543   1.364       .  A
C542       C2257   1.466       .  S
C544        C752   1.608       .  S
C544        N545   1.385       .  A
C544        N549   1.381       .  A
N545        C546   1.369       .  A
C546        N547   1.326       .  A
C546        C607   1.473       .  S
N547        C548   1.327       .  A
C548        N549   1.365       .  A
C550        C753   1.601       .  S
C550        N551   1.381       .  A
C550        N555   1.381       .  A
N551        C552   1.366       .  A
C552        N553   1.326       .  A
C552        C719   1.468       .  S
N553        C554   1.327       .  A
C554        N555   1.366       .  A
C554        C569   1.465       .  S
O556       Ni564   1.930       .  S
O556        C566   1.274       .  A
O557       Ni564   1.930       .  S
O557        C567   1.274       .  A
O558       Ni564   1.884       .  S
O558        C568   1.286       .  A
O559      Ni1432   1.886   1_545  S
O559        C569   1.287       .  A
O560      Ni1433   1.928   1_545  S
O560        C569   1.274       .  A
O561       Ni565   1.928       .  S
O561        C568   1.274       .  A
O562       Ni565   1.894       .  S
O562        C567   1.288       .  A
O563       Ni565   1.894       .  S
O563        C566   1.288       .  A
Ni564      O1427   1.886       .  S
Ni564      Ni565   2.391       .  S
Ni565      O1428   1.929       .  S
C566        C678   1.471       .  S
C567       C1454   1.471       .  S
O570       Ni578   1.940       .  S
O570        C580   1.278       .  A
O571       Ni578   1.938       .  S
O571        C581   1.278       .  A
O572      Ni1446   1.886   1_545  S
O572        C582   1.285       .  A
O573       Ni578   1.889       .  S
O573        C583   1.286       .  A
O574       Ni579   1.933       .  S
O574        C583   1.277       .  A
O575      Ni1447   1.932   1_545  S
O575        C582   1.276       .  A
O576       Ni579   1.876       .  S
O576        C581   1.283       .  A
O577       Ni579   1.880       .  S
O577        C580   1.284       .  A
Ni578      O1440   1.887       .  S
Ni578      Ni579   2.389       .  S
Ni579      O1443   1.932       .  S
C580        C706   1.471       .  S
C581       C1456   1.467       .  S
C582        C594   1.467       .  S
C584        N585   1.384       .  A
C584        N589   1.380       .  A
N585        C586   1.369       .  A
C586       N1455   1.327       .  A
C586       C1435   1.471       .  S
N587       C1454   1.328       .  A
N587       C1456   1.328       .  A
C588       N1455   1.328       .  A
C588        N589   1.360       .  A
C588       C1449   1.467       .  S
C590        C752   1.597       .  S
C590        N591   1.379       .  A
C590        N595   1.379       .  A
N591        C592   1.367       .  A
C592        N593   1.331       .  A
C592        C655   1.464       .  S
N593        C594   1.327       .  A
C594        N595   1.359       .  A
O596        C606   1.274       .  A
O597       Ni604   1.932       .  S
O597        C607   1.275       .  A
O598       Ni604   1.894       .  S
O598        C608   1.289       .  A
O599       Ni604   1.893       .  S
O599        C609   1.288   1_556  A
O600       Ni605   1.921       .  S
O600        C609   1.272   1_556  A
O601       Ni605   1.925       .  S
O601        C608   1.273       .  A
O602       Ni605   1.896       .  S
O602        C607   1.289       .  A
O603        C606   1.289       .  A
Ni604      Ni605   2.391       .  S
C606        C638   1.474       .  S
C608        C614   1.468       .  S
C610        N611   1.379       .  A
C610        N615   1.383       .  A
N611        C612   1.364       .  A
C612        N613   1.326       .  A
N613        C614   1.325       .  A
C614        N615   1.368       .  A
O616      Ni2360   1.932   1_455  S
O616        C626   1.275       .  A
O617       Ni624   1.931       .  S
O617        C627   1.274       .  A
O618       Ni624   1.883       .  S
O618        C628   1.286       .  A
O619       Ni624   1.881       .  S
O619        C629   1.286       .  A
O620       Ni625   1.935       .  S
O620        C629   1.276       .  A
O621       Ni625   1.934       .  S
O621        C628   1.276       .  A
O622       Ni625   1.891       .  S
O622        C627   1.288       .  A
O623      Ni2361   1.892   1_455  S
O623        C626   1.288       .  A
Ni624      O2352   1.932       .  S
Ni624      Ni625   2.390       .  S
Ni625      O2359   1.892       .  S
C626        C640   1.472       .  S
C628       C2474   1.468       .  S
C629        C634   1.469       .  S
C630        N631   1.387       .  A
C630        N635   1.383       .  A
N631        C632   1.369       .  A
C632        N633   1.324       .  A
N633        C634   1.324       .  A
C634        N635   1.364       .  A
C636        C755   1.608       .  S
C636        N637   1.385       .  A
C636        N641   1.382       .  A
N637        C638   1.371       .  A
C638        N639   1.328       .  A
N639        C640   1.325       .  A
C640        N641   1.365       .  A
O642       Ni650   1.927       .  S
O642        C652   1.274   1_556  A
O643       Ni650   1.923       .  S
O643        C653   1.274       .  A
O644        C654   1.286       .  A
O645       Ni650   1.883       .  S
O645        C655   1.286       .  A
O646       Ni651   1.927       .  S
O646        C655   1.274       .  A
O647        C654   1.275       .  A
O648       Ni651   1.881       .  S
O648        C653   1.285       .  A
O649       Ni651   1.886       .  S
O649        C652   1.287   1_556  A
Ni650      Ni651   2.392       .  S
C653        C660   1.459       .  S
C654        C684   1.466       .  S
C656        N657   1.389       .  A
C656        N661   1.378       .  A
N657        C658   1.372       .  A
C658        N659   1.325       .  A
N659        C660   1.324       .  A
C660        N661   1.361       .  A
O662       Ni670   1.939       .  S
O662        C672   1.278       .  A
O663       Ni670   1.936       .  S
O663        C673   1.278       .  A
O664      Ni1538   1.876   1_545  S
O664        C674   1.282       .  A
O665       Ni670   1.877       .  S
O665        C675   1.283       .  A
O666       Ni671   1.942       .  S
O666        C675   1.279       .  A
O667      Ni1539   1.939   1_545  S
O667        C674   1.278       .  A
O668       Ni671   1.878       .  S
O668        C673   1.283       .  A
O669       Ni671   1.878       .  S
O669        C672   1.284       .  A
Ni670      O1532   1.876       .  S
Ni670      Ni671   2.388       .  S
Ni671      O1535   1.939       .  S
C672        C680   1.470       .  S
C673       C1610   1.466       .  S
C674        C686   1.467       .  S
C676        N677   1.381       .  A
C676        N681   1.380       .  A
N677        C678   1.367       .  A
C678        N679   1.329       .  A
N679        C680   1.330       .  A
C680        N681   1.363       .  A
C682        C753   1.595       .  S
C682        N683   1.380       .  A
C682        N687   1.379       .  A
N683        C684   1.365       .  A
C684        N685   1.330       .  A
N685        C686   1.330       .  A
C686        N687   1.360       .  A
O688       Ni696   1.931       .  S
O688        C698   1.275       .  A
O689       Ni696   1.935       .  S
O689        C699   1.276       .  A
O690       Ni696   1.887       .  S
O690        C700   1.287       .  A
O691      Ni1564   1.884   1_545  S
O691        C701   1.285       .  A
O692      Ni1565   1.927   1_545  S
O692        C701   1.275       .  A
O693       Ni697   1.929       .  S
O693        C700   1.274       .  A
O694       Ni697   1.891       .  S
O694        C699   1.287       .  A
O695       Ni697   1.888       .  S
O695        C698   1.286       .  A
Ni696      O1559   1.885       .  S
Ni696      Ni697   2.391       .  S
Ni697      O1560   1.927       .  S
C698        C704   1.468       .  S
C699       C1612   1.472       .  S
C701        C732   1.463       .  S
C702        N703   1.381       .  A
C702        N707   1.382       .  A
N703        C704   1.366       .  A
C704        N705   1.328       .  A
N705        C706   1.328       .  A
C706        N707   1.363       .  A
O708      Ni2452   1.927   1_455  S
O708        C718   1.273       .  A
O709       Ni716   1.929       .  S
O709        C719   1.274       .  A
O710       Ni716   1.893       .  S
O710        C720   1.288       .  A
O711       Ni716   1.890       .  S
O711        C721   1.288       .  A
O712       Ni717   1.924       .  S
O712        C721   1.273       .  A
O713       Ni717   1.925       .  S
O713        C720   1.273       .  A
O714       Ni717   1.888       .  S
O714        C719   1.287       .  A
O715      Ni2453   1.886   1_455  S
O715        C718   1.288       .  A
Ni716      O2444   1.928       .  S
Ni716      Ni717   2.392       .  S
Ni717      O2451   1.886       .  S
C718        C730   1.466       .  S
C720        C726   1.467       .  S
C721       C2472   1.465       .  S
C722        N723   1.377       .  A
C722        N727   1.381       .  A
N723        C724   1.362       .  A
C724        N725   1.328       .  A
N725        C726   1.329       .  A
C726        N727   1.368       .  A
C728        C752   1.603       .  S
C728        N729   1.383       .  A
C728        N733   1.379       .  A
N729        C730   1.369       .  A
C730        N731   1.327       .  A
N731        C732   1.324       .  A
C732        N733   1.359       .  A
C734        N735   1.379       .  A
C734        N739   1.383       .  A
N735        C736   1.365       .  A
C736       N2473   1.326       .  A
C736       C2457   1.463       .  S
N737       C2472   1.326       .  A
N737       C2474   1.327       .  A
C738       N2473   1.326       .  A
C738        N739   1.365       .  A
C738       C2364   1.470       .  S
C740        N741   1.378       .  A
C740        N745   1.384       .  A
N741        C742   1.359       .  A
C742       N1611   1.329       .  A
C742       C1541   1.466       .  S
N743       C1610   1.328       .  A
N743       C1612   1.330       .  A
C744       N1611   1.330       .  A
C744        N745   1.369       .  A
C744       C1567   1.473       .  S
C746        N747   1.382       .  A
C746        N751   1.378       .  A
N747        C748   1.369       .  A
C750        N751   1.364       .  A
C752        C800   1.604       .  S
C753        C789   1.599       .  S
C754        C772   1.603       .  S
C755        C758   1.597       .  S
C756        C761   1.622       .  S
C756        C775   1.621       .  S
C756        C786   1.625       .  S
C756        C803   1.611       .  S
C757        C758   1.412       .  A
C757        C762   1.423       .  A
C757        H764   1.083       .  S
C758        C759   1.437       .  A
C759        C760   1.422       .  A
C759        N766   1.429       .  S
C760        C761   1.418       .  A
C760        H765   1.080       .  S
C761        C762   1.448       .  A
C762        N763   1.432       .  S
N763        H767   1.040       .  S
N763        H768   1.041       .  S
N766        H769   1.043       .  S
N766        H770   1.044       .  S
C771        C772   1.418       .  A
C771        C776   1.429       .  A
C771        H778   1.081       .  S
C772        C773   1.434       .  A
C773        C774   1.421       .  A
C773        N780   1.430       .  S
C774        C775   1.421       .  A
C774        H779   1.078       .  S
C775        C776   1.445       .  A
C776        N777   1.439       .  S
N777        H781   1.044       .  S
N777        H782   1.038       .  S
N780        H783   1.040       .  S
N780        H784   1.043       .  S
C785        C786   1.417       .  A
C785        C790   1.422       .  A
C785        H792   1.079       .  S
C786        C787   1.442       .  A
C787        C788   1.432       .  A
C787        N794   1.436       .  S
C788        C789   1.414       .  A
C788        H793   1.083       .  S
C789        C790   1.438       .  A
C790        N791   1.429       .  S
N791        H795   1.043       .  S
N791        H796   1.043       .  S
N794        H797   1.044       .  S
N794        H798   1.046       .  S
C799        C800   1.422       .  A
C799        C804   1.432       .  A
C799        H806   1.081       .  S
C800        C801   1.438       .  A
C801        C802   1.418       .  A
C801        N808   1.429       .  S
C802        C803   1.416       .  A
C802        H807   1.077       .  S
C803        C804   1.428       .  A
C804        N805   1.432       .  S
N805        H809   1.045       .  S
N805        H810   1.045       .  S
N808        H811   1.040       .  S
N808        H812   1.040       .  S
C813       C2550   1.421       .  A
C813       C2554   1.428       .  A
C813        H820   1.083       .  S
C814       C2175   1.618       .  S
C814       C2549   1.421       .  A
C814        C815   1.450   1_655  A
C815        C816   1.423       .  A
C815        N822   1.435       .  S
C816        C817   1.411       .  A
C816        H821   1.083       .  S
C817        C818   1.428   1_455  A
C818       C2549   1.428       .  A
C818       N2555   1.430       .  S
N819       C2554   1.430       .  S
N819        H823   1.046       .  S
N819       H2560   1.046       .  S
N822        H825   1.045       .  S
N822        H826   1.038       .  S
H824       N2555   1.046       .  S
C827        C828   1.415       .  A
C827        C832   1.430       .  A
C827        H834   1.083       .  S
C828        C829   1.431       .  A
C829        C830   1.430       .  A
C829        N836   1.430       .  S
C830        C831   1.421       .  A
C830        H835   1.083       .  S
C831        C832   1.437       .  A
N833        H837   1.046       .  S
N833        H838   1.046   1_556  S
N836        H839   1.046       .  S
N836        H840   1.046       .  S
C841        C842   1.422       .  A
C841        C846   1.433       .  A
C841        H848   1.081       .  S
C842        C843   1.437       .  A
C843        C844   1.423   1_545  A
C843        N850   1.429   1_545  S
C844        C845   1.419       .  A
C844       H1717   1.078       .  S
C845       C1307   1.620       .  S
C845        C846   1.430   1_565  A
C846        N847   1.429       .  S
N847        H851   1.045       .  S
N847       H1720   1.046       .  S
H849       C1712   1.078       .  S
N850        H853   1.043       .  S
N850        H854   1.040   1_565  S
H852       N1715   1.046       .  S
C855        C856   1.417       .  A
C856        C857   1.439   1_545  A
C857       C3462   1.421       .  A
C857        N864   1.429       .  S
C858       C3461   1.422       .  A
C858       C3463   1.414       .  A
C858        H863   1.083       .  S
C859       C2609   1.603       .  S
C859       C3462   1.414   1_655  A
C860        N861   1.431       .  S
N861        H865   1.046       .  S
N861        H866   1.045   1_556  S
N864        H867   1.042       .  S
N864       H1736   1.044       .  S
H868       N1732   1.044       .  S
C869       C1168   1.600       .  S
C869       C1174   1.597       .  S
C869       C1180   1.601       .  S
C869       C1290   1.598       .  S
C870       C1018   1.601       .  S
C870       C1090   1.608       .  S
C870       C1156   1.602       .  S
C870       C1276   1.606       .  S
C871        C926   1.607       .  S
C871       C1064   1.603       .  S
C871       C1110   1.597       .  S
C871       C1262   1.598       .  S
C872        C972   1.596       .  S
C872       C1044   1.602       .  S
C872       C1136   1.600       .  S
C872       C1251   1.593       .  S
C873       C2984   1.619       .  S
C873       C1699   1.622       .  S
C873       C2595   1.603       .  S
C874       C1188   1.604       .  S
C874        N875   1.383       .  A
C874        N879   1.382       .  A
N875        C876   1.367       .  A
C876        N877   1.325       .  A
C876        C957   1.467       .  S
N877        C878   1.324       .  A
C878        N879   1.365       .  A
C878       C1002   1.465       .  S
C880       C1188   1.595       .  S
C880        N881   1.381       .  A
C880        N885   1.379       .  A
N881        C882   1.368       .  A
C882        N883   1.332       .  A
C882        C910   1.467       .  S
N883        C884   1.327       .  A
C884        N885   1.360       .  A
C884       C1017   1.470       .  S
C886       C1189   1.593       .  S
C886        N887   1.380       .  A
C886        N891   1.382       .  A
N887        C888   1.363       .  A
C888        N889   1.327       .  A
C888        C911   1.466       .  S
N889        C890   1.329       .  A
C890        N891   1.362       .  A
C890       C1109   1.470       .  S
C892       C1187   1.605       .  S
C892        N893   1.382       .  A
C892        N897   1.383       .  A
N893        C894   1.366       .  A
C894        N895   1.326       .  A
C894       C1061   1.471       .  S
N895        C896   1.327       .  A
C896        N897   1.369       .  A
C896        C923   1.468       .  S
O898       Ni906   1.926       .  S
O898        C908   1.274       .  A
O899       Ni906   1.933       .  S
O899        C909   1.275       .  A
O900       Ni906   1.883       .  S
O900        C910   1.286       .  A
O901      Ni1340   1.886   1_554  S
O901        C911   1.286       .  A
O902      Ni1341   1.929   1_554  S
O902        C911   1.275       .  A
O903       Ni907   1.932       .  S
O903        C910   1.275       .  A
O904       Ni907   1.886       .  S
O904        C909   1.287       .  A
O905       Ni907   1.883       .  S
O905        C908   1.286       .  A
Ni906      O1335   1.885       .  S
Ni906      Ni907   2.391       .  S
Ni907      O1336   1.930       .  S
C908       C1046   1.462       .  S
C909       C1362   1.471       .  S
O912       Ni920   1.924       .  S
O912        C922   1.273       .  A
O913      Ni1354   1.924   1_554  S
O913        C923   1.272       .  A
O914       Ni920   1.893       .  S
O914        C924   1.289       .  A
O915       Ni920   1.895       .  S
O915        C925   1.290       .  A
O916       Ni921   1.935       .  S
O916        C925   1.274       .  A
O917       Ni921   1.932       .  S
O917        C924   1.274       .  A
O918      Ni1355   1.893   1_554  S
O918        C923   1.289       .  A
O919       Ni921   1.898       .  S
O919        C922   1.289       .  A
Ni920      O1347   1.924       .  S
Ni920      Ni921   2.391       .  S
Ni921      O1352   1.894       .  S
C922        C934   1.469       .  S
C924       C1364   1.473       .  S
C925       C1092   1.477       .  S
C926        N927   1.385       .  A
C926        N931   1.384       .  A
N927        C928   1.368       .  A
C928       N1363   1.325       .  A
C928       C1343   1.471       .  S
N929       C1362   1.325       .  A
N929       C1364   1.324       .  A
C930       N1363   1.324       .  A
C930        N931   1.368       .  A
C930       C1358   1.472       .  S
C932       C1188   1.606       .  S
C932        N933   1.381       .  A
C932        N937   1.382       .  A
N933        C934   1.366       .  A
C934        N935   1.326       .  A
N935        C936   1.328       .  A
C936        N937   1.367       .  A
C936        C968   1.470       .  S
C938       C1189   1.600       .  S
C938        N939   1.380       .  A
C938        N943   1.383       .  A
N939        C940   1.365       .  A
C940        N941   1.327       .  A
C940        C956   1.466       .  S
N941        C942   1.326       .  A
C942        N943   1.367       .  A
C942       C1134   1.469       .  S
O944       Ni952   1.934       .  S
O944        C954   1.275       .  A
O945       Ni952   1.929       .  S
O945        C955   1.274       .  A
O946      Ni2688   1.884   1_455  S
O946        C956   1.287       .  A
O947       Ni952   1.887       .  S
O947        C957   1.287       .  A
O948       Ni953   1.928       .  S
O948        C957   1.274       .  A
O949      Ni2689   1.928   1_455  S
O949        C956   1.274       .  A
O950       Ni953   1.888       .  S
O950        C955   1.287       .  A
O951       Ni953   1.890       .  S
O951        C954   1.288       .  A
Ni952      O2682   1.884       .  S
Ni952      Ni953   2.391       .  S
Ni953      O2685   1.927       .  S
C954       C1066   1.474       .  S
C955       C2712   1.466       .  S
O958       Ni966   1.934       .  S
O958        C968   1.275       .  A
O959      Ni2702   1.931   1_455  S
O959        C969   1.275       .  A
O960       Ni966   1.885       .  S
O960        C970   1.286       .  A
O961       Ni966   1.884       .  S
O961        C971   1.286       .  A
O962       Ni967   1.931       .  S
O962        C971   1.275       .  A
O963       Ni967   1.926       .  S
O963        C970   1.274       .  A
O964      Ni2703   1.884   1_455  S
O964        C969   1.286       .  A
O965       Ni967   1.883       .  S
O965        C968   1.286       .  A
Ni966      O2695   1.932       .  S
Ni966      Ni967   2.391       .  S
Ni967      O2700   1.885       .  S
C969        C982   1.467       .  S
C970       C1158   1.463       .  S
C971       C2710   1.468       .  S
C972        N973   1.382       .  A
C972        N977   1.380       .  A
N973        C974   1.365       .  A
C974       N2711   1.327       .  A
C974       C2707   1.468       .  S
N975       C2710   1.327       .  A
N975       C2712   1.326       .  A
C976       N2711   1.326       .  A
C976        N977   1.364       .  A
C976       C2691   1.466       .  S
C978       C1186   1.607       .  S
C978        N979   1.385       .  A
C978        N983   1.381       .  A
N979        C980   1.368       .  A
C980        N981   1.326       .  A
C980       C1041   1.472       .  S
N981        C982   1.327       .  A
C982        N983   1.364       .  A
C984       C1187   1.601       .  S
C984        N985   1.382       .  A
C984        N989   1.382       .  A
N985        C986   1.366       .  A
C986        N987   1.325       .  A
C986       C1153   1.468       .  S
N987        C988   1.326       .  A
C988        N989   1.366       .  A
C988       C1003   1.466       .  S
O990       Ni998   1.929       .  S
O990       C1000   1.274       .  A
O991       Ni998   1.929       .  S
O991       C1001   1.274   1_565  A
O992       Ni998   1.885       .  S
O992       C1002   1.287       .  A
O993       C1003   1.287       .  A
O994       C1003   1.274       .  A
O995       Ni999   1.928       .  S
O995       C1002   1.274       .  A
O996       Ni999   1.892       .  S
O996       C1001   1.288   1_565  A
O997       Ni999   1.893       .  S
O997       C1000   1.288       .  A
Ni998      Ni999   2.391       .  S
C1000      C1112   1.469       .  S
O1004     Ni1012   1.940       .  S
O1004      C1014   1.278       .  A
O1005     Ni1012   1.938       .  S
O1005      C1015   1.278   1_565  A
O1006      C1016   1.285       .  A
O1007     Ni1012   1.888       .  S
O1007      C1017   1.285       .  A
O1008     Ni1013   1.934       .  S
O1008      C1017   1.277       .  A
O1009      C1016   1.277       .  A
O1010     Ni1013   1.877       .  S
O1010      C1015   1.283   1_565  A
O1011     Ni1013   1.880       .  S
O1011      C1014   1.284       .  A
Ni1012    Ni1013   2.389       .  S
C1014      C1140   1.471       .  S
C1016      C1028   1.468       .  S
C1018      N1019   1.383       .  A
C1018      N1023   1.380       .  A
N1019      C1020   1.368       .  A
C1022      N1023   1.360       .  A
C1024      C1186   1.597       .  S
C1024      N1025   1.379       .  A
C1024      N1029   1.379       .  A
N1025      C1026   1.367       .  A
C1026      N1027   1.331       .  A
C1026      C1089   1.463       .  S
N1027      C1028   1.327       .  A
C1028      N1029   1.360       .  A
O1030     Ni1472   1.935   1_554  S
O1030      C1040   1.274       .  A
O1031     Ni1038   1.932       .  S
O1031      C1041   1.275       .  A
O1032     Ni1038   1.893       .  S
O1032      C1042   1.289       .  A
O1033     Ni1038   1.892       .  S
O1033      C1043   1.288       .  A
O1034     Ni1039   1.921       .  S
O1034      C1043   1.273       .  A
O1035     Ni1039   1.925       .  S
O1035      C1042   1.273       .  A
O1036     Ni1039   1.894       .  S
O1036      C1041   1.288       .  A
O1037     Ni1473   1.893   1_554  S
O1037      C1040   1.289       .  A
Ni1038     O1464   1.934       .  S
Ni1038    Ni1039   2.391       .  S
Ni1039     O1471   1.892       .  S
C1040      C1072   1.476       .  S
C1042      C1048   1.469       .  S
C1043      C1618   1.463       .  S
C1044      N1045   1.379       .  A
C1044      N1049   1.383       .  A
N1045      C1046   1.364       .  A
C1046      N1047   1.326       .  A
N1047      C1048   1.325       .  A
C1048      N1049   1.368       .  A
O1050     Ni2794   1.933   1_455  S
O1050      C1060   1.275       .  A
O1051     Ni1058   1.931       .  S
O1051      C1061   1.275       .  A
O1052     Ni1058   1.884       .  S
O1052      C1062   1.286       .  A
O1053     Ni1058   1.882       .  S
O1053      C1063   1.286       .  A
O1054     Ni1059   1.936       .  S
O1054      C1063   1.276       .  A
O1055     Ni1059   1.936       .  S
O1055      C1062   1.276       .  A
O1056     Ni1059   1.892       .  S
O1056      C1061   1.288       .  A
O1057     Ni2795   1.892   1_455  S
O1057      C1060   1.288       .  A
Ni1058     O2786   1.934       .  S
Ni1058    Ni1059   2.389       .  S
Ni1059     O2793   1.893       .  S
C1060      C1074   1.473       .  S
C1062      C2908   1.470       .  S
C1063      C1068   1.470       .  S
C1064      N1065   1.387       .  A
C1064      N1069   1.383       .  A
N1065      C1066   1.369       .  A
C1066      N1067   1.324       .  A
N1067      C1068   1.324       .  A
C1068      N1069   1.364       .  A
C1070      C1189   1.608       .  S
C1070      N1071   1.386       .  A
C1070      N1075   1.382       .  A
N1071      C1072   1.372       .  A
C1072      N1073   1.328       .  A
N1073      C1074   1.325       .  A
C1074      N1075   1.365       .  A
O1076     Ni1084   1.927       .  S
O1076      C1086   1.274       .  A
O1077     Ni1084   1.924       .  S
O1077      C1087   1.274       .  A
O1078     Ni1518   1.886   1_554  S
O1078      C1088   1.286       .  A
O1079     Ni1084   1.883       .  S
O1079      C1089   1.286       .  A
O1080     Ni1085   1.926       .  S
O1080      C1089   1.274       .  A
O1081     Ni1519   1.929   1_554  S
O1081      C1088   1.275       .  A
O1082     Ni1085   1.882       .  S
O1082      C1087   1.286       .  A
O1083     Ni1085   1.886       .  S
O1083      C1086   1.287       .  A
Ni1084     O1512   1.886       .  S
Ni1084    Ni1085   2.392       .  S
Ni1085     O1515   1.930       .  S
C1086      C1616   1.465       .  S
C1087      C1094   1.460       .  S
C1088      C1118   1.466       .  S
C1090      N1091   1.389       .  A
C1090      N1095   1.378       .  A
N1091      C1092   1.372       .  A
C1092      N1093   1.324       .  A
N1093      C1094   1.323       .  A
C1094      N1095   1.360       .  A
O1096     Ni1104   1.938       .  S
O1096      C1106   1.278       .  A
O1097     Ni1104   1.935   1_545  S
O1097      C1107   1.278       .  A
O1098      C1108   1.282       .  A
O1099     Ni1104   1.875       .  S
O1099      C1109   1.283       .  A
O1100     Ni1105   1.942       .  S
O1100      C1109   1.279       .  A
O1101      C1108   1.278       .  A
O1102     Ni1105   1.879       .  S
O1102      C1107   1.283   1_565  A
O1103     Ni1105   1.878       .  S
O1103      C1106   1.284       .  A
Ni1104    Ni1105   2.388       .  S
C1106      C1114   1.469       .  S
C1108      C1120   1.467       .  S
C1110      N1111   1.381       .  A
C1110      N1115   1.380       .  A
N1111      C1112   1.367       .  A
C1112      N1113   1.329       .  A
N1113      C1114   1.330       .  A
C1114      N1115   1.362       .  A
C1116      C1187   1.594       .  S
C1116      N1117   1.380       .  A
C1116      N1121   1.378       .  A
N1117      C1118   1.365       .  A
C1118      N1119   1.330       .  A
N1119      C1120   1.329       .  A
C1120      N1121   1.359       .  A
O1122     Ni1130   1.932       .  S
O1122      C1132   1.275       .  A
O1123     Ni1130   1.934       .  S
O1123      C1133   1.276   1_565  A
O1124     Ni1130   1.887       .  S
O1124      C1134   1.287       .  A
O1125      C1135   1.285       .  A
O1126      C1135   1.275       .  A
O1127     Ni1131   1.930       .  S
O1127      C1134   1.274       .  A
O1128     Ni1131   1.890       .  S
O1128      C1133   1.287   1_565  A
O1129     Ni1131   1.887       .  S
O1129      C1132   1.286       .  A
Ni1130    Ni1131   2.391       .  S
C1132      C1138   1.469       .  S
C1135      C1166   1.463       .  S
C1136      N1137   1.381       .  A
C1136      N1141   1.381       .  A
N1137      C1138   1.366       .  A
C1138      N1139   1.329       .  A
N1139      C1140   1.328       .  A
C1140      N1141   1.363       .  A
O1142     Ni2886   1.929   1_455  S
O1142      C1152   1.274       .  A
O1143     Ni1150   1.930       .  S
O1143      C1153   1.274       .  A
O1144     Ni1150   1.893       .  S
O1144      C1154   1.288       .  A
O1145     Ni1150   1.891       .  S
O1145      C1155   1.288       .  A
O1146     Ni1151   1.921       .  S
O1146      C1155   1.272       .  A
O1147     Ni1151   1.924       .  S
O1147      C1154   1.273       .  A
O1148     Ni1151   1.888       .  S
O1148      C1153   1.288       .  A
O1149     Ni2887   1.886   1_455  S
O1149      C1152   1.288       .  A
Ni1150     O2878   1.928       .  S
Ni1150    Ni1151   2.392       .  S
Ni1151     O2885   1.886       .  S
C1152      C1164   1.468       .  S
C1154      C1160   1.467       .  S
C1155      C2906   1.463       .  S
C1156      N1157   1.377       .  A
C1156      N1161   1.381       .  A
N1157      C1158   1.362       .  A
C1158      N1159   1.328       .  A
N1159      C1160   1.329       .  A
C1160      N1161   1.368       .  A
C1162      C1186   1.603       .  S
C1162      N1163   1.384       .  A
C1162      N1167   1.379       .  A
N1163      C1164   1.369       .  A
C1164      N1165   1.327       .  A
N1165      C1166   1.323       .  A
C1166      N1167   1.359       .  A
C1168      N1169   1.380       .  A
C1168      N1173   1.383       .  A
N1169      C1170   1.366       .  A
C1170      N2907   1.327       .  A
C1170      C2891   1.464       .  S
N1171      C2906   1.326       .  A
N1171      C2908   1.327       .  A
C1172      N2907   1.327       .  A
C1172      N1173   1.365       .  A
C1172      C2798   1.470       .  S
C1174      N1175   1.378       .  A
C1174      N1179   1.383       .  A
N1175      C1176   1.359       .  A
C1178      N1179   1.368       .  A
C1180      N1181   1.381       .  A
C1180      N1185   1.379       .  A
N1181      C1182   1.368       .  A
C1182      N1617   1.328       .  A
C1182      C1520   1.466       .  S
N1183      C1616   1.329       .  A
N1183      C1618   1.326       .  A
C1184      N1617   1.326       .  A
C1184      N1185   1.364       .  A
C1184      C1477   1.464       .  S
C1186      C1234   1.603       .  S
C1187      C1223   1.599       .  S
C1188      C1206   1.602       .  S
C1189      C1192   1.598       .  S
C1190      C1195   1.623       .  S
C1190      C1209   1.620       .  S
C1190      C1220   1.625       .  S
C1190      C1237   1.611       .  S
C1191      C1192   1.412       .  A
C1191      C1196   1.424       .  A
C1191      H1198   1.083       .  S
C1192      C1193   1.437       .  A
C1193      C1194   1.422       .  A
C1193      N1200   1.429       .  S
C1194      C1195   1.418       .  A
C1194      H1199   1.080       .  S
C1195      C1196   1.448       .  A
C1196      N1197   1.432       .  S
N1197      H1201   1.040       .  S
N1197      H1202   1.041       .  S
N1200      H1203   1.043       .  S
N1200      H1204   1.044       .  S
C1205      C1206   1.418       .  A
C1205      C1210   1.428       .  A
C1205      H1212   1.081       .  S
C1206      C1207   1.434       .  A
C1207      C1208   1.421       .  A
C1207      N1214   1.430       .  S
C1208      C1209   1.421       .  A
C1208      H1213   1.079       .  S
C1209      C1210   1.445       .  A
C1210      N1211   1.439       .  S
N1211      H1215   1.045       .  S
N1211      H1216   1.036       .  S
N1214      H1217   1.040       .  S
N1214      H1218   1.043       .  S
C1219      C1220   1.417       .  A
C1219      C1224   1.422       .  A
C1219      H1226   1.079       .  S
C1220      C1221   1.442       .  A
C1221      C1222   1.431       .  A
C1221      N1228   1.436       .  S
C1222      C1223   1.413       .  A
C1222      H1227   1.083       .  S
C1223      C1224   1.438       .  A
C1224      N1225   1.430       .  S
N1225      H1229   1.043       .  S
N1225      H1230   1.043       .  S
N1228      H1231   1.043       .  S
N1228      H1232   1.046       .  S
C1233      C1234   1.422       .  A
C1233      C1238   1.432       .  A
C1233      H1240   1.081       .  S
C1234      C1235   1.438       .  A
C1235      C1236   1.418       .  A
C1235      N1242   1.429       .  S
C1236      C1237   1.416       .  A
C1236      H1241   1.077       .  S
C1237      C1238   1.429       .  A
C1238      N1239   1.432       .  S
N1239      H1243   1.045       .  S
N1239      H1244   1.045       .  S
N1242      H1245   1.040       .  S
N1242      H1246   1.040       .  S
C1247      C2984   1.421       .  A
C1247      C2988   1.427       .  A
C1247      H1254   1.083       .  S
C1248      C2609   1.619       .  S
C1248      C2983   1.421       .  A
C1248      C1249   1.450   1_655  A
C1249      C1250   1.424       .  A
C1249      N1256   1.434       .  S
C1250      C1251   1.411       .  A
C1250      H1255   1.083       .  S
C1251      C1252   1.428   1_455  A
C1252      C2983   1.427       .  A
C1252      N2989   1.430       .  S
N1253      C2988   1.430       .  S
N1253      H1257   1.045       .  S
N1253      H2994   1.046       .  S
N1256      H1259   1.045       .  S
N1256      H1260   1.038       .  S
H1258      N2989   1.046       .  S
C1261      C1262   1.415       .  A
C1261      C1266   1.431   1_554  A
C1261      H1268   1.083       .  S
C1262      C1263   1.431       .  A
C1263      C1264   1.429       .  A
C1263      N1270   1.430       .  S
C1264      C1265   1.420   1_554  A
C1264      H1269   1.083       .  S
C1265      C1307   1.622       .  S
C1265      C1266   1.437       .  A
C1266      N1701   1.431       .  S
N1267      C1700   1.431       .  S
N1267      H1271   1.046       .  S
N1267      H1272   1.046       .  S
N1270      H1273   1.046       .  S
N1270      H1274   1.046       .  S
C1275      C1276   1.421       .  A
C1275      C1280   1.432       .  A
C1275      H1282   1.081       .  S
C1276      C1277   1.437       .  A
C1277      C1278   1.423       .  A
C1277      N1284   1.429       .  S
C1278      C1279   1.419       .  A
C1279      C1280   1.430       .  A
C1280      N1281   1.429       .  S
N1281      H1285   1.045       .  S
N1284      H1287   1.043       .  S
N1284      H1288   1.040       .  S
C1289      C1290   1.417       .  A
C1289      C1728   1.428   1_454  A
C1289      H1730   1.083       .  S
C1290      C1291   1.439       .  A
C1291      C2160   1.421       .  A
C1291      N1298   1.429       .  S
C1292      C2159   1.422       .  A
C1292      C2161   1.414   1_554  A
C1292      H1297   1.083       .  S
C1293      C2175   1.604       .  S
C1293      C2160   1.414   1_656  A
C1293      C1728   1.432       .  A
C1294      C1723   1.428   1_655  A
C1294      C1727   1.432       .  A
C1294      N1295   1.431       .  S
N1295      H1299   1.046       .  S
N1295      H1300   1.045       .  S
H1296      C1723   1.083       .  S
N1298      H1301   1.042       .  S
C1303      C1602   1.599       .  S
C1303      C1608   1.597       .  S
C1303      C1614   1.600       .  S
C1303      C1724   1.597       .  S
C1304      C1452   1.601       .  S
C1304      C1524   1.608       .  S
C1304      C1590   1.602       .  S
C1304      C1710   1.606       .  S
C1305      C1360   1.606       .  S
C1305      C1498   1.602       .  S
C1305      C1544   1.599       .  S
C1305      C1696   1.598       .  S
C1306      C1406   1.597       .  S
C1306      C1478   1.600       .  S
C1306      C1570   1.600       .  S
C1306      C1685   1.592       .  S
C1307      C3418   1.619       .  S
C1307      C2161   1.605       .  S
C1308      C1622   1.604       .  S
C1308      N1309   1.382       .  A
C1308      N1313   1.382       .  A
N1309      C1310   1.366       .  A
C1310      N1311   1.324       .  A
C1310      C1391   1.466       .  S
N1311      C1312   1.324       .  A
C1312      N1313   1.365       .  A
C1312      C1436   1.465       .  S
C1314      C1622   1.594       .  S
C1314      N1315   1.380       .  A
C1314      N1319   1.378       .  A
N1315      C1316   1.368       .  A
C1316      N1317   1.332       .  A
C1316      C1344   1.467       .  S
N1317      C1318   1.328       .  A
C1318      N1319   1.359       .  A
C1318      C1451   1.469       .  S
C1320      C1623   1.592       .  S
C1320      N1321   1.379       .  A
C1320      N1325   1.382       .  A
N1321      C1322   1.363       .  A
C1322      N1323   1.328       .  A
C1322      C1345   1.465       .  S
N1323      C1324   1.328       .  A
C1324      N1325   1.362       .  A
C1324      C1543   1.471       .  S
C1326      C1621   1.605       .  S
C1326      N1327   1.382       .  A
C1326      N1331   1.383       .  A
N1327      C1328   1.366       .  A
C1328      N1329   1.326       .  A
C1328      C1495   1.471       .  S
N1329      C1330   1.326       .  A
C1330      N1331   1.369       .  A
C1330      C1357   1.468       .  S
O1332     Ni1340   1.927       .  S
O1332      C1342   1.274       .  A
O1333     Ni1340   1.934       .  S
O1333      C1343   1.275   1_556  A
O1334     Ni1340   1.884       .  S
O1334      C1344   1.286       .  A
O1335      C1345   1.286       .  A
O1336      C1345   1.275       .  A
O1337     Ni1341   1.931       .  S
O1337      C1344   1.275       .  A
O1338     Ni1341   1.885       .  S
O1338      C1343   1.287   1_556  A
O1339     Ni1341   1.881       .  S
O1339      C1342   1.285       .  A
Ni1340    Ni1341   2.391       .  S
C1342      C1480   1.462       .  S
O1346     Ni1354   1.925       .  S
O1346      C1356   1.273       .  A
O1347      C1357   1.272       .  A
O1348     Ni1354   1.894       .  S
O1348      C1358   1.289   1_556  A
O1349     Ni1354   1.896       .  S
O1349      C1359   1.290       .  A
O1350     Ni1355   1.935       .  S
O1350      C1359   1.274       .  A
O1351     Ni1355   1.931       .  S
O1351      C1358   1.274   1_556  A
O1352      C1357   1.289       .  A
O1353     Ni1355   1.898       .  S
O1353      C1356   1.289       .  A
Ni1354    Ni1355   2.391       .  S
C1356      C1368   1.469       .  S
C1359      C1526   1.476       .  S
C1360      N1361   1.385       .  A
C1360      N1365   1.385       .  A
N1361      C1362   1.368       .  A
C1364      N1365   1.368       .  A
C1366      C1622   1.606       .  S
C1366      N1367   1.381       .  A
C1366      N1371   1.382       .  A
N1367      C1368   1.366       .  A
C1368      N1369   1.326       .  A
N1369      C1370   1.329       .  A
C1370      N1371   1.367       .  A
C1370      C1402   1.470       .  S
C1372      C1623   1.599       .  S
C1372      N1373   1.381       .  A
C1372      N1377   1.382       .  A
N1373      C1374   1.365       .  A
C1374      N1375   1.326       .  A
C1374      C1390   1.466       .  S
N1375      C1376   1.326       .  A
C1376      N1377   1.366       .  A
C1376      C1568   1.468       .  S
O1378     Ni1386   1.934       .  S
O1378      C1388   1.275       .  A
O1379     Ni1386   1.929       .  S
O1379      C1389   1.274       .  A
O1380     Ni3122   1.885   1_455  S
O1380      C1390   1.287       .  A
O1381     Ni1386   1.888       .  S
O1381      C1391   1.287       .  A
O1382     Ni1387   1.927       .  S
O1382      C1391   1.274       .  A
O1383     Ni3123   1.929   1_455  S
O1383      C1390   1.274       .  A
O1384     Ni1387   1.887       .  S
O1384      C1389   1.287       .  A
O1385     Ni1387   1.889       .  S
O1385      C1388   1.288       .  A
Ni1386     O3116   1.885       .  S
Ni1386    Ni1387   2.391       .  S
Ni1387     O3119   1.928       .  S
C1388      C1500   1.473       .  S
C1389      C3146   1.465       .  S
O1392     Ni1400   1.935       .  S
O1392      C1402   1.276       .  A
O1393     Ni3136   1.933   1_455  S
O1393      C1403   1.276       .  A
O1394     Ni1400   1.886       .  S
O1394      C1404   1.286       .  A
O1395     Ni1400   1.886       .  S
O1395      C1405   1.287       .  A
O1396     Ni1401   1.930       .  S
O1396      C1405   1.275       .  A
O1397     Ni1401   1.926       .  S
O1397      C1404   1.274       .  A
O1398     Ni3137   1.885   1_455  S
O1398      C1403   1.286       .  A
O1399     Ni1401   1.882       .  S
O1399      C1402   1.286       .  A
Ni1400     O3129   1.932       .  S
Ni1400    Ni1401   2.391       .  S
Ni1401     O3134   1.885       .  S
C1403      C1416   1.468       .  S
C1404      C1592   1.463       .  S
C1405      C3144   1.468       .  S
C1406      N1407   1.382       .  A
C1406      N1411   1.380       .  A
N1407      C1408   1.365       .  A
C1408      N3145   1.327       .  A
C1408      C3141   1.469       .  S
N1409      C3144   1.327       .  A
N1409      C3146   1.327       .  A
C1410      N3145   1.326       .  A
C1410      N1411   1.364       .  A
C1410      C3125   1.466       .  S
C1412      C1620   1.609       .  S
C1412      N1413   1.385       .  A
C1412      N1417   1.382       .  A
N1413      C1414   1.369       .  A
C1414      N1415   1.326       .  A
C1414      C1475   1.473       .  S
N1415      C1416   1.327       .  A
C1416      N1417   1.365       .  A
C1418      C1621   1.602       .  S
C1418      N1419   1.381       .  A
C1418      N1423   1.382       .  A
N1419      C1420   1.366       .  A
C1420      N1421   1.325       .  A
C1420      C1587   1.467       .  S
N1421      C1422   1.326       .  A
C1422      N1423   1.366       .  A
C1422      C1437   1.467       .  S
O1424     Ni1432   1.930       .  S
O1424      C1434   1.274       .  A
O1425     Ni1432   1.930       .  S
O1425      C1435   1.274   1_565  A
O1426     Ni1432   1.883       .  S
O1426      C1436   1.286       .  A
O1427      C1437   1.287       .  A
O1428      C1437   1.274       .  A
O1429     Ni1433   1.928       .  S
O1429      C1436   1.274       .  A
O1430     Ni1433   1.894       .  S
O1430      C1435   1.288   1_565  A
O1431     Ni1433   1.893       .  S
O1431      C1434   1.288       .  A
Ni1432    Ni1433   2.391       .  S
C1434      C1546   1.470       .  S
O1438     Ni1446   1.940       .  S
O1438      C1448   1.278       .  A
O1439     Ni1446   1.938       .  S
O1439      C1449   1.278   1_565  A
O1440      C1450   1.285       .  A
O1441     Ni1446   1.888       .  S
O1441      C1451   1.285       .  A
O1442     Ni1447   1.933       .  S
O1442      C1451   1.277       .  A
O1443      C1450   1.276       .  A
O1444     Ni1447   1.877       .  S
O1444      C1449   1.283   1_565  A
O1445     Ni1447   1.880       .  S
O1445      C1448   1.284       .  A
Ni1446    Ni1447   2.389       .  S
C1448      C1574   1.471       .  S
C1450      C1462   1.468       .  S
C1452      N1453   1.384       .  A
C1452      N1457   1.380       .  A
N1453      C1454   1.369       .  A
C1456      N1457   1.360       .  A
C1458      C1620   1.597       .  S
C1458      N1459   1.379       .  A
C1458      N1463   1.379       .  A
N1459      C1460   1.367       .  A
C1460      N1461   1.331       .  A
C1460      C1523   1.463       .  S
N1461      C1462   1.326       .  A
C1462      N1463   1.360       .  A
O1464      C1474   1.274       .  A
O1465     Ni1472   1.933       .  S
O1465      C1475   1.275       .  A
O1466     Ni1472   1.894       .  S
O1466      C1476   1.289       .  A
O1467     Ni1472   1.893       .  S
O1467      C1477   1.288   1_556  A
O1468     Ni1473   1.921       .  S
O1468      C1477   1.272   1_556  A
O1469     Ni1473   1.924       .  S
O1469      C1476   1.272       .  A
O1470     Ni1473   1.896       .  S
O1470      C1475   1.289       .  A
O1471      C1474   1.289       .  A
Ni1472    Ni1473   2.391       .  S
C1474      C1506   1.475       .  S
C1476      C1482   1.467       .  S
C1478      N1479   1.379       .  A
C1478      N1483   1.382       .  A
N1479      C1480   1.364       .  A
C1480      N1481   1.326       .  A
N1481      C1482   1.325       .  A
C1482      N1483   1.368       .  A
O1484     Ni3228   1.933   1_455  S
O1484      C1494   1.275       .  A
O1485     Ni1492   1.932       .  S
O1485      C1495   1.275       .  A
O1486     Ni1492   1.886       .  S
O1486      C1496   1.286       .  A
O1487     Ni1492   1.883       .  S
O1487      C1497   1.286       .  A
O1488     Ni1493   1.936       .  S
O1488      C1497   1.276       .  A
O1489     Ni1493   1.936       .  S
O1489      C1496   1.276       .  A
O1490     Ni1493   1.891       .  S
O1490      C1495   1.288       .  A
O1491     Ni3229   1.892   1_455  S
O1491      C1494   1.288       .  A
Ni1492     O3220   1.933       .  S
Ni1492    Ni1493   2.389       .  S
Ni1493     O3227   1.891       .  S
C1494      C1508   1.473       .  S
C1496      C3342   1.471       .  S
C1497      C1502   1.470       .  S
C1498      N1499   1.387       .  A
C1498      N1503   1.384       .  A
N1499      C1500   1.369       .  A
C1500      N1501   1.324       .  A
N1501      C1502   1.323       .  A
C1502      N1503   1.364       .  A
C1504      C1623   1.608       .  S
C1504      N1505   1.386       .  A
C1504      N1509   1.382       .  A
N1505      C1506   1.372       .  A
C1506      N1507   1.328       .  A
N1507      C1508   1.325       .  A
C1508      N1509   1.365       .  A
O1510     Ni1518   1.926       .  S
O1510      C1520   1.273   1_556  A
O1511     Ni1518   1.923       .  S
O1511      C1521   1.273       .  A
O1512      C1522   1.286       .  A
O1513     Ni1518   1.883       .  S
O1513      C1523   1.286       .  A
O1514     Ni1519   1.926       .  S
O1514      C1523   1.274       .  A
O1515      C1522   1.275       .  A
O1516     Ni1519   1.882       .  S
O1516      C1521   1.286       .  A
O1517     Ni1519   1.887       .  S
O1517      C1520   1.287   1_556  A
Ni1518    Ni1519   2.393       .  S
C1521      C1528   1.460       .  S
C1522      C1552   1.467       .  S
C1524      N1525   1.389       .  A
C1524      N1529   1.378       .  A
N1525      C1526   1.372       .  A
C1526      N1527   1.324       .  A
N1527      C1528   1.323       .  A
C1528      N1529   1.360       .  A
O1530     Ni1538   1.939       .  S
O1530      C1540   1.278       .  A
O1531     Ni1538   1.936   1_545  S
O1531      C1541   1.278       .  A
O1532      C1542   1.282       .  A
O1533     Ni1538   1.877       .  S
O1533      C1543   1.283       .  A
O1534     Ni1539   1.942       .  S
O1534      C1543   1.279       .  A
O1535      C1542   1.278       .  A
O1536     Ni1539   1.878       .  S
O1536      C1541   1.283   1_565  A
O1537     Ni1539   1.879       .  S
O1537      C1540   1.284       .  A
Ni1538    Ni1539   2.388       .  S
C1540      C1548   1.471       .  S
C1542      C1554   1.467       .  S
C1544      N1545   1.381       .  A
C1544      N1549   1.380       .  A
N1545      C1546   1.367       .  A
C1546      N1547   1.330       .  A
N1547      C1548   1.330       .  A
C1548      N1549   1.363       .  A
C1550      C1621   1.594       .  S
C1550      N1551   1.380       .  A
C1550      N1555   1.379       .  A
N1551      C1552   1.365       .  A
C1552      N1553   1.330       .  A
N1553      C1554   1.329       .  A
C1554      N1555   1.360       .  A
O1556     Ni1564   1.931       .  S
O1556      C1566   1.275       .  A
O1557     Ni1564   1.934       .  S
O1557      C1567   1.276   1_565  A
O1558     Ni1564   1.886       .  S
O1558      C1568   1.287       .  A
O1559      C1569   1.285       .  A
O1560      C1569   1.275       .  A
O1561     Ni1565   1.929       .  S
O1561      C1568   1.274       .  A
O1562     Ni1565   1.892       .  S
O1562      C1567   1.287   1_565  A
O1563     Ni1565   1.889       .  S
O1563      C1566   1.287       .  A
Ni1564    Ni1565   2.391       .  S
C1566      C1572   1.469       .  S
C1569      C1600   1.463       .  S
C1570      N1571   1.381       .  A
C1570      N1575   1.382       .  A
N1571      C1572   1.366       .  A
C1572      N1573   1.328       .  A
N1573      C1574   1.328       .  A
C1574      N1575   1.363       .  A
O1576     Ni3320   1.927   1_455  S
O1576      C1586   1.273       .  A
O1577     Ni1584   1.929       .  S
O1577      C1587   1.274       .  A
O1578     Ni1584   1.893       .  S
O1578      C1588   1.288       .  A
O1579     Ni1584   1.890       .  S
O1579      C1589   1.288       .  A
O1580     Ni1585   1.922       .  S
O1580      C1589   1.273       .  A
O1581     Ni1585   1.924       .  S
O1581      C1588   1.273       .  A
O1582     Ni1585   1.888       .  S
O1582      C1587   1.288       .  A
O1583     Ni3321   1.887   1_455  S
O1583      C1586   1.288       .  A
Ni1584     O3312   1.928       .  S
Ni1584    Ni1585   2.392       .  S
Ni1585     O3319   1.886       .  S
C1586      C1598   1.466       .  S
C1588      C1594   1.467       .  S
C1589      C3340   1.464       .  S
C1590      N1591   1.377       .  A
C1590      N1595   1.381       .  A
N1591      C1592   1.362       .  A
C1592      N1593   1.328       .  A
N1593      C1594   1.329       .  A
C1594      N1595   1.368       .  A
C1596      C1620   1.603       .  S
C1596      N1597   1.382       .  A
C1596      N1601   1.379       .  A
N1597      C1598   1.369       .  A
C1598      N1599   1.327       .  A
N1599      C1600   1.324       .  A
C1600      N1601   1.360       .  A
C1602      N1603   1.380       .  A
C1602      N1607   1.382       .  A
N1603      C1604   1.365       .  A
C1604      N3341   1.327       .  A
C1604      C3325   1.463       .  S
N1605      C3340   1.327       .  A
N1605      C3342   1.326       .  A
C1606      N3341   1.326       .  A
C1606      N1607   1.364       .  A
C1606      C3232   1.470       .  S
C1608      N1609   1.378       .  A
C1608      N1613   1.384       .  A
N1609      C1610   1.359       .  A
C1612      N1613   1.368       .  A
C1614      N1615   1.381       .  A
C1614      N1619   1.378       .  A
N1615      C1616   1.368       .  A
C1618      N1619   1.364       .  A
C1620      C1668   1.604       .  S
C1621      C1657   1.599       .  S
C1622      C1640   1.601       .  S
C1623      C1626   1.597       .  S
C1624      C1629   1.622       .  S
C1624      C1643   1.620       .  S
C1624      C1654   1.625       .  S
C1624      C1671   1.610       .  S
C1625      C1626   1.412       .  A
C1625      C1630   1.423       .  A
C1625      H1632   1.083       .  S
C1626      C1627   1.438       .  A
C1627      C1628   1.422       .  A
C1627      N1634   1.429       .  S
C1628      C1629   1.418       .  A
C1628      H1633   1.081       .  S
C1629      C1630   1.448       .  A
C1630      N1631   1.432       .  S
N1631      H1635   1.040       .  S
N1631      H1636   1.041       .  S
N1634      H1637   1.043       .  S
N1634      H1638   1.044       .  S
C1639      C1640   1.418       .  A
C1639      C1644   1.428       .  A
C1639      H1646   1.081       .  S
C1640      C1641   1.434       .  A
C1641      C1642   1.421       .  A
C1641      N1648   1.430       .  S
C1642      C1643   1.421       .  A
C1642      H1647   1.078       .  S
C1643      C1644   1.444       .  A
C1644      N1645   1.439       .  S
N1645      H1649   1.044       .  S
N1645      H1650   1.038       .  S
N1648      H1651   1.040       .  S
N1648      H1652   1.043       .  S
C1653      C1654   1.417       .  A
C1653      C1658   1.422       .  A
C1653      H1660   1.079       .  S
C1654      C1655   1.442       .  A
C1655      C1656   1.432       .  A
C1655      N1662   1.436       .  S
C1656      C1657   1.414       .  A
C1656      H1661   1.083       .  S
C1657      C1658   1.438       .  A
C1658      N1659   1.429       .  S
N1659      H1663   1.043       .  S
N1659      H1664   1.043       .  S
N1662      H1665   1.044       .  S
N1662      H1666   1.045       .  S
C1667      C1668   1.422       .  A
C1667      C1672   1.432       .  A
C1667      H1674   1.081       .  S
C1668      C1669   1.438       .  A
C1669      C1670   1.418       .  A
C1669      N1676   1.429       .  S
C1670      C1671   1.416       .  A
C1670      H1675   1.077       .  S
C1671      C1672   1.429       .  A
C1672      N1673   1.432       .  S
N1673      H1677   1.045       .  S
N1673      H1678   1.045       .  S
N1676      H1679   1.040       .  S
N1676      H1680   1.040       .  S
C1681      C3418   1.421       .  A
C1681      C3422   1.428       .  A
C1681      H1688   1.083       .  S
C1682      C3043   1.619       .  S
C1682      C3417   1.421       .  A
C1682      C1683   1.450   1_655  A
C1683      C1684   1.423       .  A
C1683      N1690   1.434       .  S
C1684      C1685   1.411       .  A
C1684      H1689   1.083       .  S
C1685      C1686   1.428   1_455  A
C1686      C3417   1.428       .  A
C1686      N3423   1.430       .  S
N1687      C3422   1.430       .  S
N1687      H1691   1.046       .  S
N1687      H3428   1.046       .  S
N1690      H1693   1.044       .  S
N1690      H1694   1.039       .  S
H1692      N3423   1.046       .  S
C1695      C1696   1.415       .  A
C1695      C1700   1.430       .  A
C1695      H1702   1.083       .  S
C1696      C1697   1.431       .  A
C1697      C1698   1.430       .  A
C1697      N1704   1.430       .  S
C1698      C1699   1.421       .  A
C1698      H1703   1.083       .  S
C1699      C1700   1.436       .  A
N1701      H1705   1.046       .  S
N1701      H1706   1.046   1_556  S
N1704      H1707   1.046       .  S
N1704      H1708   1.046       .  S
C1709      C1710   1.421       .  A
C1709      C1714   1.432       .  A
C1709      H1716   1.081       .  S
C1710      C1711   1.437       .  A
C1711      C1712   1.422       .  A
C1711      N1718   1.429       .  S
C1712      C1713   1.419       .  A
C1713      C1714   1.429       .  A
C1714      N1715   1.429       .  S
N1715      H1719   1.045       .  S
N1718      H1721   1.043       .  S
N1718      H1722   1.040       .  S
C1723      C1724   1.417       .  A
C1724      C1725   1.438       .  A
C1725      C2594   1.421       .  A
C1725      N1732   1.429       .  S
C1726      C2593   1.420       .  A
C1726      C2595   1.413       .  A
C1726      H1731   1.083       .  S
C1727      C1741   1.604       .  S
C1727      C2594   1.414   1_655  A
C1728      N1729   1.431       .  S
N1729      H1733   1.046       .  S
N1729      H1734   1.046   1_556  S
N1732      H1735   1.042       .  S
C1737      C2036   1.600       .  S
C1737      C2042   1.596       .  S
C1737      C2048   1.601       .  S
C1737      C2158   1.598       .  S
C1738      C1886   1.602       .  S
C1738      C1958   1.608       .  S
C1738      C2024   1.602       .  S
C1738      C2144   1.606       .  S
C1739      C1794   1.607       .  S
C1739      C1932   1.602       .  S
C1739      C1978   1.598       .  S
C1739      C2130   1.598       .  S
C1740      C1840   1.596       .  S
C1740      C1912   1.602       .  S
C1740      C2004   1.600       .  S
C1740      C2119   1.592       .  S
C1741      C2567   1.623       .  S
C1741      C3015   1.619       .  S
C1742      C2056   1.604       .  S
C1742      N1743   1.382       .  A
C1742      N1747   1.382       .  A
N1743      C1744   1.367       .  A
C1744      N1745   1.325       .  A
C1744      C1825   1.467       .  S
N1745      C1746   1.325       .  A
C1746      N1747   1.365       .  A
C1746      C1870   1.466       .  S
C1748      C2056   1.596       .  S
C1748      N1749   1.380       .  A
C1748      N1753   1.380       .  A
N1749      C1750   1.368       .  A
C1750      N1751   1.332       .  A
C1750      C1778   1.466       .  S
N1751      C1752   1.327       .  A
C1752      N1753   1.361       .  A
C1752      C1885   1.470       .  S
C1754      C2057   1.592       .  S
C1754      N1755   1.380       .  A
C1754      N1759   1.383       .  A
N1755      C1756   1.363       .  A
C1756      N1757   1.327       .  A
C1756      C1779   1.465       .  S
N1757      C1758   1.328       .  A
C1758      N1759   1.362       .  A
C1758      C1977   1.471       .  S
C1760      C2055   1.605       .  S
C1760      N1761   1.383       .  A
C1760      N1765   1.383       .  A
N1761      C1762   1.366       .  A
C1762      N1763   1.325       .  A
C1762      C1929   1.471       .  S
N1763      C1764   1.327       .  A
C1764      N1765   1.369       .  A
C1764      C1791   1.467       .  S
O1766     Ni1774   1.927       .  S
O1766      C1776   1.274       .  A
O1767     Ni1774   1.934       .  S
O1767      C1777   1.275       .  A
O1768     Ni1774   1.883       .  S
O1768      C1778   1.286       .  A
O1769     Ni2208   1.884   1_554  S
O1769      C1779   1.286       .  A
O1770     Ni2209   1.929   1_554  S
O1770      C1779   1.275       .  A
O1771     Ni1775   1.931       .  S
O1771      C1778   1.275       .  A
O1772     Ni1775   1.886       .  S
O1772      C1777   1.287       .  A
O1773     Ni1775   1.882       .  S
O1773      C1776   1.286       .  A
Ni1774     O2203   1.885       .  S
Ni1774    Ni1775   2.391       .  S
Ni1775     O2204   1.929       .  S
C1776      C1914   1.463       .  S
C1777      C2230   1.471       .  S
O1780     Ni1788   1.925       .  S
O1780      C1790   1.272       .  A
O1781     Ni2222   1.924   1_554  S
O1781      C1791   1.272       .  A
O1782     Ni1788   1.895       .  S
O1782      C1792   1.290       .  A
O1783     Ni1788   1.896       .  S
O1783      C1793   1.290       .  A
O1784     Ni1789   1.935       .  S
O1784      C1793   1.274       .  A
O1785     Ni1789   1.932       .  S
O1785      C1792   1.274       .  A
O1786     Ni2223   1.892   1_554  S
O1786      C1791   1.289       .  A
O1787     Ni1789   1.900       .  S
O1787      C1790   1.290       .  A
Ni1788     O2215   1.923       .  S
Ni1788    Ni1789   2.391       .  S
Ni1789     O2220   1.895       .  S
C1790      C1802   1.470       .  S
C1792      C2232   1.473       .  S
C1793      C1960   1.477       .  S
C1794      N1795   1.385       .  A
C1794      N1799   1.385       .  A
N1795      C1796   1.368       .  A
C1796      N2231   1.325       .  A
C1796      C2211   1.471       .  S
N1797      C2230   1.325       .  A
N1797      C2232   1.323       .  A
C1798      N2231   1.323       .  A
C1798      N1799   1.368       .  A
C1798      C2226   1.473       .  S
C1800      C2056   1.607       .  S
C1800      N1801   1.382       .  A
C1800      N1805   1.382       .  A
N1801      C1802   1.367       .  A
C1802      N1803   1.325       .  A
N1803      C1804   1.328       .  A
C1804      N1805   1.366       .  A
C1804      C1836   1.470       .  S
C1806      C2057   1.600       .  S
C1806      N1807   1.381       .  A
C1806      N1811   1.383       .  A
N1807      C1808   1.365       .  A
C1808      N1809   1.326       .  A
C1808      C1824   1.467       .  S
N1809      C1810   1.326       .  A
C1810      N1811   1.367       .  A
C1810      C2002   1.469       .  S
O1812     Ni1820   1.934       .  S
O1812      C1822   1.275       .  A
O1813     Ni1820   1.930       .  S
O1813      C1823   1.274   1_655  A
O1814      C1824   1.287       .  A
O1815     Ni1820   1.888       .  S
O1815      C1825   1.287       .  A
O1816     Ni1821   1.929       .  S
O1816      C1825   1.274       .  A
O1817      C1824   1.274       .  A
O1818     Ni1821   1.888       .  S
O1818      C1823   1.287   1_655  A
O1819     Ni1821   1.890       .  S
O1819      C1822   1.288       .  A
Ni1820    Ni1821   2.391       .  S
C1822      C1934   1.473       .  S
O1826     Ni1834   1.935       .  S
O1826      C1836   1.275       .  A
O1827      C1837   1.276       .  A
O1828     Ni1834   1.886       .  S
O1828      C1838   1.286       .  A
O1829     Ni1834   1.886       .  S
O1829      C1839   1.287   1_655  A
O1830     Ni1835   1.931       .  S
O1830      C1839   1.275   1_655  A
O1831     Ni1835   1.926       .  S
O1831      C1838   1.274       .  A
O1832      C1837   1.286       .  A
O1833     Ni1835   1.881       .  S
O1833      C1836   1.286       .  A
Ni1834    Ni1835   2.391       .  S
C1837      C1850   1.467       .  S
C1838      C2026   1.463       .  S
C1840      N1841   1.381       .  A
C1840      N1845   1.381       .  A
N1841      C1842   1.365       .  A
C1844      N1845   1.364       .  A
C1846      C2054   1.607       .  S
C1846      N1847   1.385       .  A
C1846      N1851   1.381       .  A
N1847      C1848   1.369       .  A
C1848      N1849   1.326       .  A
C1848      C1909   1.472       .  S
N1849      C1850   1.326       .  A
C1850      N1851   1.364       .  A
C1852      C2055   1.601       .  S
C1852      N1853   1.381       .  A
C1852      N1857   1.383       .  A
N1853      C1854   1.366       .  A
C1854      N1855   1.325       .  A
C1854      C2021   1.468       .  S
N1855      C1856   1.326       .  A
C1856      N1857   1.367       .  A
C1856      C1871   1.467       .  S
O1858     Ni1866   1.930       .  S
O1858      C1868   1.274       .  A
O1859     Ni1866   1.927       .  S
O1859      C1869   1.274       .  A
O1860     Ni1866   1.885       .  S
O1860      C1870   1.287       .  A
O1861     Ni2734   1.886   1_545  S
O1861      C1871   1.287       .  A
O1862     Ni2735   1.930   1_545  S
O1862      C1871   1.274       .  A
O1863     Ni1867   1.928       .  S
O1863      C1870   1.274       .  A
O1864     Ni1867   1.893       .  S
O1864      C1869   1.288       .  A
O1865     Ni1867   1.895       .  S
O1865      C1868   1.288       .  A
Ni1866     O2729   1.886       .  S
Ni1866    Ni1867   2.391       .  S
Ni1867     O2730   1.930       .  S
C1868      C1980   1.471       .  S
C1869      C2756   1.468       .  S
O1872     Ni1880   1.939       .  S
O1872      C1882   1.278       .  A
O1873     Ni1880   1.938       .  S
O1873      C1883   1.278       .  A
O1874     Ni2748   1.886   1_545  S
O1874      C1884   1.285       .  A
O1875     Ni1880   1.889       .  S
O1875      C1885   1.286       .  A
O1876     Ni1881   1.933       .  S
O1876      C1885   1.277       .  A
O1877     Ni2749   1.933   1_545  S
O1877      C1884   1.277       .  A
O1878     Ni1881   1.876       .  S
O1878      C1883   1.283       .  A
O1879     Ni1881   1.878       .  S
O1879      C1882   1.284       .  A
Ni1880     O2742   1.887       .  S
Ni1880    Ni1881   2.389       .  S
Ni1881     O2745   1.931       .  S
C1882      C2008   1.470       .  S
C1883      C2758   1.467       .  S
C1884      C1896   1.468       .  S
C1886      N1887   1.383       .  A
C1886      N1891   1.380       .  A
N1887      C1888   1.368       .  A
C1888      N2757   1.328       .  A
C1888      C2737   1.469       .  S
N1889      C2756   1.328       .  A
N1889      C2758   1.328       .  A
C1890      N2757   1.328       .  A
C1890      N1891   1.360       .  A
C1890      C2751   1.467       .  S
C1892      C2054   1.597       .  S
C1892      N1893   1.379       .  A
C1892      N1897   1.379       .  A
N1893      C1894   1.367       .  A
C1894      N1895   1.331       .  A
C1894      C1957   1.463       .  S
N1895      C1896   1.327       .  A
C1896      N1897   1.360       .  A
O1898     Ni2340   1.935   1_554  S
O1898      C1908   1.274       .  A
O1899     Ni1906   1.931       .  S
O1899      C1909   1.274       .  A
O1900     Ni1906   1.893       .  S
O1900      C1910   1.289       .  A
O1901     Ni1906   1.892       .  S
O1901      C1911   1.288       .  A
O1902     Ni1907   1.921       .  S
O1902      C1911   1.272       .  A
O1903     Ni1907   1.924       .  S
O1903      C1910   1.273       .  A
O1904     Ni1907   1.895       .  S
O1904      C1909   1.289       .  A
O1905     Ni2341   1.892   1_554  S
O1905      C1908   1.289       .  A
Ni1906     O2332   1.933       .  S
Ni1906    Ni1907   2.391       .  S
Ni1907     O2339   1.892       .  S
C1908      C1940   1.475       .  S
C1910      C1916   1.468       .  S
C1911      C2486   1.464       .  S
C1912      N1913   1.380       .  A
C1912      N1917   1.383       .  A
N1913      C1914   1.364       .  A
C1914      N1915   1.325       .  A
N1915      C1916   1.325       .  A
C1916      N1917   1.368       .  A
O1918      C1928   1.275       .  A
O1919     Ni1926   1.932       .  S
O1919      C1929   1.275       .  A
O1920     Ni1926   1.885       .  S
O1920      C1930   1.286   1_655  A
O1921     Ni1926   1.882       .  S
O1921      C1931   1.286       .  A
O1922     Ni1927   1.936       .  S
O1922      C1931   1.276       .  A
O1923     Ni1927   1.935       .  S
O1923      C1930   1.276   1_655  A
O1924     Ni1927   1.893       .  S
O1924      C1929   1.288       .  A
O1925      C1928   1.287       .  A
Ni1926    Ni1927   2.389       .  S
C1928      C1942   1.471       .  S
C1931      C1936   1.470       .  S
C1932      N1933   1.386       .  A
C1932      N1937   1.383       .  A
N1933      C1934   1.369       .  A
C1934      N1935   1.325       .  A
N1935      C1936   1.325       .  A
C1936      N1937   1.364       .  A
C1938      C2057   1.606       .  S
C1938      N1939   1.386       .  A
C1938      N1943   1.381       .  A
N1939      C1940   1.372       .  A
C1940      N1941   1.328       .  A
N1941      C1942   1.325       .  A
C1942      N1943   1.364       .  A
O1944     Ni1952   1.927       .  S
O1944      C1954   1.274       .  A
O1945     Ni1952   1.924       .  S
O1945      C1955   1.274       .  A
O1946     Ni2386   1.886   1_554  S
O1946      C1956   1.286       .  A
O1947     Ni1952   1.884       .  S
O1947      C1957   1.286       .  A
O1948     Ni1953   1.926       .  S
O1948      C1957   1.274       .  A
O1949     Ni2387   1.929   1_554  S
O1949      C1956   1.275       .  A
O1950     Ni1953   1.881       .  S
O1950      C1955   1.285       .  A
O1951     Ni1953   1.886       .  S
O1951      C1954   1.287       .  A
Ni1952     O2380   1.887       .  S
Ni1952    Ni1953   2.392       .  S
Ni1953     O2383   1.929       .  S
C1954      C2484   1.466       .  S
C1955      C1962   1.460       .  S
C1956      C1986   1.466       .  S
C1958      N1959   1.389       .  A
C1958      N1963   1.378       .  A
N1959      C1960   1.372       .  A
C1960      N1961   1.324       .  A
N1961      C1962   1.323       .  A
C1962      N1963   1.360       .  A
O1964     Ni1972   1.938       .  S
O1964      C1974   1.278       .  A
O1965     Ni1972   1.936       .  S
O1965      C1975   1.278       .  A
O1966     Ni2840   1.876   1_545  S
O1966      C1976   1.282       .  A
O1967     Ni1972   1.876       .  S
O1967      C1977   1.283       .  A
O1968     Ni1973   1.942       .  S
O1968      C1977   1.279       .  A
O1969     Ni2841   1.940   1_545  S
O1969      C1976   1.279       .  A
O1970     Ni1973   1.878       .  S
O1970      C1975   1.283       .  A
O1971     Ni1973   1.877       .  S
O1971      C1974   1.283       .  A
Ni1972     O2834   1.877       .  S
Ni1972    Ni1973   2.389       .  S
Ni1973     O2837   1.938       .  S
C1974      C1982   1.468       .  S
C1975      C2912   1.466       .  S
C1976      C1988   1.467       .  S
C1978      N1979   1.382       .  A
C1978      N1983   1.379       .  A
N1979      C1980   1.368       .  A
C1980      N1981   1.329       .  A
N1981      C1982   1.330       .  A
C1982      N1983   1.362       .  A
C1984      C2055   1.594       .  S
C1984      N1985   1.380       .  A
C1984      N1989   1.378       .  A
N1985      C1986   1.365       .  A
C1986      N1987   1.330       .  A
N1987      C1988   1.329       .  A
C1988      N1989   1.359       .  A
O1990     Ni1998   1.931       .  S
O1990      C2000   1.275       .  A
O1991     Ni1998   1.933       .  S
O1991      C2001   1.275       .  A
O1992     Ni1998   1.887       .  S
O1992      C2002   1.287       .  A
O1993     Ni2866   1.883   1_545  S
O1993      C2003   1.285       .  A
O1994     Ni2867   1.927   1_545  S
O1994      C2003   1.275       .  A
O1995     Ni1999   1.930       .  S
O1995      C2002   1.274       .  A
O1996     Ni1999   1.892       .  S
O1996      C2001   1.287       .  A
O1997     Ni1999   1.889       .  S
O1997      C2000   1.287       .  A
Ni1998     O2861   1.884       .  S
Ni1998    Ni1999   2.391       .  S
Ni1999     O2862   1.927       .  S
C2000      C2006   1.469       .  S
C2001      C2914   1.472       .  S
C2003      C2034   1.463       .  S
C2004      N2005   1.381       .  A
C2004      N2009   1.381       .  A
N2005      C2006   1.366       .  A
C2006      N2007   1.328       .  A
N2007      C2008   1.328       .  A
C2008      N2009   1.363       .  A
O2010      C2020   1.274       .  A
O2011     Ni2018   1.929       .  S
O2011      C2021   1.274       .  A
O2012     Ni2018   1.893       .  S
O2012      C2022   1.288       .  A
O2013     Ni2018   1.890       .  S
O2013      C2023   1.288   1_655  A
O2014     Ni2019   1.921       .  S
O2014      C2023   1.272   1_655  A
O2015     Ni2019   1.924       .  S
O2015      C2022   1.273       .  A
O2016     Ni2019   1.889       .  S
O2016      C2021   1.288       .  A
O2017      C2020   1.288       .  A
Ni2018    Ni2019   2.392       .  S
C2020      C2032   1.468       .  S
C2022      C2028   1.467       .  S
C2024      N2025   1.377       .  A
C2024      N2029   1.382       .  A
N2025      C2026   1.362       .  A
C2026      N2027   1.328       .  A
N2027      C2028   1.329       .  A
C2028      N2029   1.369       .  A
C2030      C2054   1.604       .  S
C2030      N2031   1.384       .  A
C2030      N2035   1.379       .  A
N2031      C2032   1.369       .  A
C2032      N2033   1.326       .  A
N2033      C2034   1.323       .  A
C2034      N2035   1.360       .  A
C2036      N2037   1.380       .  A
C2036      N2041   1.382       .  A
N2037      C2038   1.366       .  A
C2040      N2041   1.364       .  A
C2042      N2043   1.377       .  A
C2042      N2047   1.383       .  A
N2043      C2044   1.358       .  A
C2044      N2913   1.329       .  A
C2044      C2843   1.465       .  S
N2045      C2912   1.328       .  A
N2045      C2914   1.329       .  A
C2046      N2913   1.330       .  A
C2046      N2047   1.368       .  A
C2046      C2869   1.471       .  S
C2048      N2049   1.381       .  A
C2048      N2053   1.378       .  A
N2049      C2050   1.368       .  A
C2050      N2485   1.328       .  A
C2050      C2388   1.466       .  S
N2051      C2484   1.328       .  A
N2051      C2486   1.326       .  A
C2052      N2485   1.326       .  A
C2052      N2053   1.364       .  A
C2052      C2345   1.464       .  S
C2054      C2102   1.604       .  S
C2055      C2091   1.598       .  S
C2056      C2074   1.604       .  S
C2057      C2060   1.596       .  S
C2058      C2063   1.618       .  S
C2058      C2077   1.620       .  S
C2058      C2088   1.620       .  S
C2058      C2105   1.612       .  S
C2059      C2060   1.412       .  A
C2059      C2064   1.423       .  A
C2059      H2066   1.083       .  S
C2060      C2061   1.437       .  A
C2061      C2062   1.421       .  A
C2061      N2068   1.429       .  S
C2062      C2063   1.418       .  A
C2062      H2067   1.083       .  S
C2063      C2064   1.446       .  A
C2064      N2065   1.432       .  S
N2065      H2069   1.040       .  S
N2065      H2070   1.041       .  S
N2068      H2071   1.043       .  S
N2068      H2072   1.044       .  S
C2073      C2074   1.418       .  A
C2073      C2078   1.428       .  A
C2073      H2080   1.081       .  S
C2074      C2075   1.434       .  A
C2075      C2076   1.422       .  A
C2075      N2082   1.430       .  S
C2076      C2077   1.422       .  A
C2076      H2081   1.079       .  S
C2077      C2078   1.444       .  A
C2078      N2079   1.439       .  S
N2079      H2083   1.046       .  S
N2079      H2084   1.033       .  S
N2082      H2085   1.040       .  S
N2082      H2086   1.043       .  S
C2087      C2088   1.416       .  A
C2087      C2092   1.422       .  A
C2087      H2094   1.079       .  S
C2088      C2089   1.436       .  A
C2089      C2090   1.429       .  A
C2089      N2096   1.431       .  S
C2090      C2091   1.415       .  A
C2090      H2095   1.083       .  S
C2091      C2092   1.439       .  A
C2092      N2093   1.429       .  S
N2093      H2097   1.043       .  S
N2093      H2098   1.043       .  S
N2096      H2099   1.045       .  S
N2096      H2100   1.046       .  S
C2101      C2102   1.423       .  A
C2101      C2106   1.433       .  A
C2101      H2108   1.081       .  S
C2102      C2103   1.437       .  A
C2103      C2104   1.418       .  A
C2103      N2110   1.429       .  S
C2104      C2105   1.417       .  A
C2104      H2109   1.077       .  S
C2105      C2106   1.428       .  A
C2106      N2107   1.432       .  S
N2107      H2111   1.045       .  S
N2107      H2112   1.045       .  S
N2110      H2113   1.039       .  S
N2110      H2114   1.042       .  S
C2115      H2122   1.083       .  S
C2116      C2117   1.449       .  A
C2117      C2118   1.422       .  A
C2117      N2124   1.434       .  S
C2118      C2119   1.410       .  A
C2118      H2123   1.083       .  S
C2119      C2120   1.428       .  A
N2121      H2125   1.045       .  S
N2124      H2127   1.045       .  S
N2124      H2128   1.038       .  S
C2129      C2130   1.415       .  A
C2129      C2134   1.430   1_554  A
C2129      H2136   1.083       .  S
C2130      C2131   1.431       .  A
C2131      C2132   1.429       .  A
C2131      N2138   1.430       .  S
C2132      C2133   1.420   1_554  A
C2132      H2137   1.083       .  S
C2133      C2175   1.621       .  S
C2133      C2134   1.436       .  A
C2134      N2569   1.431       .  S
N2135      C2568   1.431       .  S
N2135      H2139   1.046       .  S
N2135      H2140   1.046       .  S
N2138      H2141   1.046       .  S
N2138      H2142   1.046       .  S
C2143      C2144   1.421       .  A
C2143      C2148   1.433       .  A
C2143      H2150   1.081       .  S
C2144      C2145   1.437       .  A
C2145      C2146   1.423   1_545  A
C2145      N2152   1.429   1_545  S
C2146      C2147   1.419       .  A
C2146      H3019   1.078       .  S
C2147      C2609   1.620       .  S
C2147      C2148   1.430   1_565  A
C2148      N2149   1.429       .  S
N2149      H2153   1.045       .  S
N2149      H3022   1.046   1_655  S
H2151      C3014   1.078       .  S
N2152      H2155   1.043       .  S
N2152      H2156   1.040   1_565  S
H2154      N3017   1.046   1_455  S
C2157      C2158   1.417       .  A
C2157      C2596   1.429   1_554  A
C2157      H2598   1.083       .  S
C2158      C2159   1.439   1_545  A
C2159      N2166   1.429       .  S
C2160      H2165   1.083       .  S
C2161      C2596   1.432   1_565  A
C2162      C2591   1.428       .  A
C2162      C2595   1.432   1_545  A
C2162      N2163   1.431       .  S
N2163      H2167   1.046       .  S
N2163      H2168   1.046       .  S
H2164      C2591   1.083       .  S
N2166      H2169   1.042       .  S
N2166      H3038   1.044       .  S
H2170      N3034   1.044       .  S
C2171      C2470   1.599       .  S
C2171      C2476   1.596       .  S
C2171      C2482   1.601       .  S
C2171      C2592   1.597       .  S
C2172      C2320   1.602       .  S
C2172      C2392   1.609       .  S
C2172      C2458   1.601       .  S
C2172      C2578   1.606       .  S
C2173      C2228   1.607       .  S
C2173      C2366   1.602       .  S
C2173      C2412   1.599       .  S
C2173      C2564   1.599       .  S
C2174      C2274   1.595       .  S
C2174      C2346   1.602       .  S
C2174      C2438   1.600       .  S
C2174      C2553   1.592       .  S
C2175      C3449   1.618       .  S
C2176      C2490   1.604       .  S
C2176      N2177   1.384       .  A
C2176      N2181   1.381       .  A
N2177      C2178   1.367       .  A
C2178      N2179   1.324       .  A
C2178      C2259   1.468       .  S
N2179      C2180   1.324       .  A
C2180      N2181   1.364       .  A
C2180      C2304   1.464       .  S
C2182      C2490   1.595       .  S
C2182      N2183   1.380       .  A
C2182      N2187   1.379       .  A
N2183      C2184   1.367       .  A
C2184      N2185   1.332       .  A
C2184      C2212   1.466       .  S
N2185      C2186   1.328       .  A
C2186      N2187   1.360       .  A
C2186      C2319   1.470       .  S
C2188      C2491   1.591       .  S
C2188      N2189   1.379       .  A
C2188      N2193   1.382       .  A
N2189      C2190   1.363       .  A
C2190      N2191   1.328       .  A
C2190      C2213   1.465       .  S
N2191      C2192   1.329       .  A
C2192      N2193   1.361       .  A
C2192      C2411   1.470       .  S
C2194      C2489   1.604       .  S
C2194      N2195   1.382       .  A
C2194      N2199   1.382       .  A
N2195      C2196   1.366       .  A
C2196      N2197   1.326       .  A
C2196      C2363   1.470       .  S
N2197      C2198   1.327       .  A
C2198      N2199   1.369       .  A
C2198      C2225   1.467       .  S
O2200     Ni2208   1.925       .  S
O2200      C2210   1.274       .  A
O2201     Ni2208   1.933       .  S
O2201      C2211   1.275   1_556  A
O2202     Ni2208   1.883       .  S
O2202      C2212   1.286       .  A
O2203      C2213   1.286       .  A
O2204      C2213   1.275       .  A
O2205     Ni2209   1.930       .  S
O2205      C2212   1.275       .  A
O2206     Ni2209   1.885       .  S
O2206      C2211   1.287   1_556  A
O2207     Ni2209   1.881       .  S
O2207      C2210   1.286       .  A
Ni2208    Ni2209   2.391       .  S
C2210      C2348   1.461       .  S
O2214     Ni2222   1.924       .  S
O2214      C2224   1.273       .  A
O2215      C2225   1.272       .  A
O2216     Ni2222   1.895       .  S
O2216      C2226   1.290   1_556  A
O2217     Ni2222   1.898       .  S
O2217      C2227   1.290       .  A
O2218     Ni2223   1.934       .  S
O2218      C2227   1.274       .  A
O2219     Ni2223   1.932       .  S
O2219      C2226   1.274   1_556  A
O2220      C2225   1.289       .  A
O2221     Ni2223   1.896       .  S
O2221      C2224   1.289       .  A
Ni2222    Ni2223   2.391       .  S
C2224      C2236   1.468       .  S
C2227      C2394   1.477       .  S
C2228      N2229   1.385       .  A
C2228      N2233   1.385       .  A
N2229      C2230   1.368       .  A
C2232      N2233   1.369       .  A
C2234      C2490   1.605       .  S
C2234      N2235   1.381       .  A
C2234      N2239   1.382       .  A
N2235      C2236   1.366       .  A
C2236      N2237   1.326       .  A
N2237      C2238   1.328       .  A
C2238      N2239   1.367       .  A
C2238      C2270   1.470       .  S
C2240      C2491   1.600       .  S
C2240      N2241   1.380       .  A
C2240      N2245   1.383       .  A
N2241      C2242   1.365       .  A
C2242      N2243   1.326       .  A
C2242      C2258   1.467       .  S
N2243      C2244   1.326       .  A
C2244      N2245   1.367       .  A
C2244      C2436   1.468       .  S
O2246     Ni2254   1.934       .  S
O2246      C2256   1.275       .  A
O2247     Ni2254   1.929       .  S
O2247      C2257   1.274   1_655  A
O2248      C2258   1.287       .  A
O2249     Ni2254   1.889       .  S
O2249      C2259   1.288       .  A
O2250     Ni2255   1.929       .  S
O2250      C2259   1.274       .  A
O2251      C2258   1.274       .  A
O2252     Ni2255   1.889       .  S
O2252      C2257   1.287   1_655  A
O2253     Ni2255   1.889       .  S
O2253      C2256   1.288       .  A
Ni2254    Ni2255   2.391       .  S
C2256      C2368   1.473       .  S
O2260     Ni2268   1.934       .  S
O2260      C2270   1.275       .  A
O2261      C2271   1.275       .  A
O2262     Ni2268   1.884       .  S
O2262      C2272   1.286       .  A
O2263     Ni2268   1.884       .  S
O2263      C2273   1.286   1_655  A
O2264     Ni2269   1.930       .  S
O2264      C2273   1.275   1_655  A
O2265     Ni2269   1.926       .  S
O2265      C2272   1.274       .  A
O2266      C2271   1.286       .  A
O2267     Ni2269   1.883       .  S
O2267      C2270   1.286       .  A
Ni2268    Ni2269   2.391       .  S
C2271      C2284   1.467       .  S
C2272      C2460   1.463       .  S
C2274      N2275   1.381       .  A
C2274      N2279   1.380       .  A
N2275      C2276   1.364       .  A
C2278      N2279   1.364       .  A
C2280      C2488   1.608       .  S
C2280      N2281   1.384       .  A
C2280      N2285   1.381       .  A
N2281      C2282   1.368       .  A
C2282      N2283   1.327       .  A
C2282      C2343   1.472       .  S
N2283      C2284   1.327       .  A
C2284      N2285   1.365       .  A
C2286      C2489   1.601       .  S
C2286      N2287   1.381       .  A
C2286      N2291   1.382       .  A
N2287      C2288   1.365       .  A
C2288      N2289   1.326       .  A
C2288      C2455   1.467       .  S
N2289      C2290   1.326       .  A
C2290      N2291   1.366       .  A
C2290      C2305   1.466       .  S
O2292     Ni2300   1.930       .  S
O2292      C2302   1.274       .  A
O2293     Ni2300   1.929       .  S
O2293      C2303   1.274       .  A
O2294     Ni2300   1.883       .  S
O2294      C2304   1.286       .  A
O2295     Ni3168   1.887   1_545  S
O2295      C2305   1.287       .  A
O2296     Ni3169   1.928   1_545  S
O2296      C2305   1.274       .  A
O2297     Ni2301   1.927       .  S
O2297      C2304   1.274       .  A
O2298     Ni2301   1.893       .  S
O2298      C2303   1.288       .  A
O2299     Ni2301   1.894       .  S
O2299      C2302   1.288       .  A
Ni2300     O3163   1.886       .  S
Ni2300    Ni2301   2.391       .  S
Ni2301     O3164   1.929       .  S
C2302      C2414   1.471       .  S
C2303      C3190   1.470       .  S
O2306     Ni2314   1.939       .  S
O2306      C2316   1.278       .  A
O2307     Ni2314   1.937       .  S
O2307      C2317   1.278       .  A
O2308     Ni3182   1.887   1_545  S
O2308      C2318   1.285       .  A
O2309     Ni2314   1.888       .  S
O2309      C2319   1.285       .  A
O2310     Ni2315   1.934       .  S
O2310      C2319   1.277       .  A
O2311     Ni3183   1.931   1_545  S
O2311      C2318   1.276       .  A
O2312     Ni2315   1.877       .  S
O2312      C2317   1.283       .  A
O2313     Ni2315   1.880       .  S
O2313      C2316   1.284       .  A
Ni2314     O3176   1.887       .  S
Ni2314    Ni2315   2.389       .  S
Ni2315     O3179   1.932       .  S
C2316      C2442   1.470       .  S
C2317      C3192   1.467       .  S
C2318      C2330   1.467       .  S
C2320      N2321   1.383       .  A
C2320      N2325   1.381       .  A
N2321      C2322   1.368       .  A
C2322      N3191   1.327       .  A
C2322      C3171   1.470       .  S
N2323      C3190   1.327       .  A
N2323      C3192   1.327       .  A
C2324      N3191   1.327       .  A
C2324      N2325   1.360       .  A
C2324      C3185   1.468       .  S
C2326      C2488   1.598       .  S
C2326      N2327   1.379       .  A
C2326      N2331   1.379       .  A
N2327      C2328   1.367       .  A
C2328      N2329   1.331       .  A
C2328      C2391   1.463       .  S
N2329      C2330   1.327       .  A
C2330      N2331   1.360       .  A
O2332      C2342   1.274       .  A
O2333     Ni2340   1.931       .  S
O2333      C2343   1.275       .  A
O2334     Ni2340   1.894       .  S
O2334      C2344   1.289       .  A
O2335     Ni2340   1.892       .  S
O2335      C2345   1.288   1_556  A
O2336     Ni2341   1.921       .  S
O2336      C2345   1.272   1_556  A
O2337     Ni2341   1.925       .  S
O2337      C2344   1.273       .  A
O2338     Ni2341   1.895       .  S
O2338      C2343   1.288       .  A
O2339      C2342   1.289       .  A
Ni2340    Ni2341   2.391       .  S
C2342      C2374   1.473       .  S
C2344      C2350   1.469       .  S
C2346      N2347   1.379       .  A
C2346      N2351   1.383       .  A
N2347      C2348   1.364       .  A
C2348      N2349   1.326       .  A
N2349      C2350   1.325       .  A
C2350      N2351   1.368       .  A
O2352      C2362   1.275       .  A
O2353     Ni2360   1.931       .  S
O2353      C2363   1.274       .  A
O2354     Ni2360   1.885       .  S
O2354      C2364   1.286   1_655  A
O2355     Ni2360   1.883       .  S
O2355      C2365   1.286       .  A
O2356     Ni2361   1.935       .  S
O2356      C2365   1.276       .  A
O2357     Ni2361   1.935       .  S
O2357      C2364   1.276   1_655  A
O2358     Ni2361   1.892       .  S
O2358      C2363   1.288       .  A
O2359      C2362   1.288       .  A
Ni2360    Ni2361   2.390       .  S
C2362      C2376   1.472       .  S
C2365      C2370   1.470       .  S
C2366      N2367   1.386       .  A
C2366      N2371   1.383       .  A
N2367      C2368   1.369       .  A
C2368      N2369   1.325       .  A
N2369      C2370   1.324       .  A
C2370      N2371   1.364       .  A
C2372      C2491   1.607       .  S
C2372      N2373   1.385       .  A
C2372      N2377   1.382       .  A
N2373      C2374   1.371       .  A
C2374      N2375   1.328       .  A
N2375      C2376   1.325       .  A
C2376      N2377   1.365       .  A
O2378     Ni2386   1.926       .  S
O2378      C2388   1.274   1_556  A
O2379     Ni2386   1.923       .  S
O2379      C2389   1.274       .  A
O2380      C2390   1.286       .  A
O2381     Ni2386   1.884       .  S
O2381      C2391   1.286       .  A
O2382     Ni2387   1.926       .  S
O2382      C2391   1.274       .  A
O2383      C2390   1.275       .  A
O2384     Ni2387   1.882       .  S
O2384      C2389   1.286       .  A
O2385     Ni2387   1.887       .  S
O2385      C2388   1.287   1_556  A
Ni2386    Ni2387   2.393       .  S
C2389      C2396   1.459       .  S
C2390      C2420   1.467       .  S
C2392      N2393   1.389       .  A
C2392      N2397   1.378       .  A
N2393      C2394   1.373       .  A
C2394      N2395   1.325       .  A
N2395      C2396   1.324       .  A
C2396      N2397   1.360       .  A
O2398     Ni2406   1.939       .  S
O2398      C2408   1.278       .  A
O2399     Ni2406   1.936       .  S
O2399      C2409   1.278       .  A
O2400     Ni3274   1.877   1_545  S
O2400      C2410   1.282       .  A
O2401     Ni2406   1.875       .  S
O2401      C2411   1.283       .  A
O2402     Ni2407   1.942       .  S
O2402      C2411   1.279       .  A
O2403     Ni3275   1.939   1_545  S
O2403      C2410   1.279       .  A
O2404     Ni2407   1.879       .  S
O2404      C2409   1.283       .  A
O2405     Ni2407   1.879       .  S
O2405      C2408   1.284       .  A
Ni2406     O3268   1.875       .  S
Ni2406    Ni2407   2.388       .  S
Ni2407     O3271   1.939       .  S
C2408      C2416   1.470       .  S
C2409      C3346   1.466       .  S
C2410      C2422   1.467       .  S
C2412      N2413   1.381       .  A
C2412      N2417   1.380       .  A
N2413      C2414   1.367       .  A
C2414      N2415   1.329       .  A
N2415      C2416   1.330       .  A
C2416      N2417   1.363       .  A
C2418      C2489   1.595       .  S
C2418      N2419   1.380       .  A
C2418      N2423   1.379       .  A
N2419      C2420   1.365       .  A
C2420      N2421   1.330       .  A
N2421      C2422   1.330       .  A
C2422      N2423   1.360       .  A
O2424     Ni2432   1.930       .  S
O2424      C2434   1.275       .  A
O2425     Ni2432   1.934       .  S
O2425      C2435   1.275       .  A
O2426     Ni2432   1.886       .  S
O2426      C2436   1.287       .  A
O2427     Ni3300   1.885   1_545  S
O2427      C2437   1.285       .  A
O2428     Ni3301   1.928   1_545  S
O2428      C2437   1.275       .  A
O2429     Ni2433   1.930       .  S
O2429      C2436   1.274       .  A
O2430     Ni2433   1.893       .  S
O2430      C2435   1.288       .  A
O2431     Ni2433   1.890       .  S
O2431      C2434   1.287       .  A
Ni2432     O3295   1.884       .  S
Ni2432    Ni2433   2.391       .  S
Ni2433     O3296   1.927       .  S
C2434      C2440   1.468       .  S
C2435      C3348   1.473       .  S
C2437      C2468   1.463       .  S
C2438      N2439   1.381       .  A
C2438      N2443   1.381       .  A
N2439      C2440   1.366       .  A
C2440      N2441   1.329       .  A
N2441      C2442   1.329       .  A
C2442      N2443   1.363       .  A
O2444      C2454   1.274       .  A
O2445     Ni2452   1.929       .  S
O2445      C2455   1.274       .  A
O2446     Ni2452   1.891       .  S
O2446      C2456   1.288       .  A
O2447     Ni2452   1.889       .  S
O2447      C2457   1.288   1_655  A
O2448     Ni2453   1.923       .  S
O2448      C2457   1.273   1_655  A
O2449     Ni2453   1.925       .  S
O2449      C2456   1.273       .  A
O2450     Ni2453   1.887       .  S
O2450      C2455   1.287       .  A
O2451      C2454   1.287       .  A
Ni2452    Ni2453   2.392       .  S
C2454      C2466   1.466       .  S
C2456      C2462   1.467       .  S
C2458      N2459   1.377       .  A
C2458      N2463   1.381       .  A
N2459      C2460   1.362       .  A
C2460      N2461   1.328       .  A
N2461      C2462   1.329       .  A
C2462      N2463   1.368       .  A
C2464      C2488   1.602       .  S
C2464      N2465   1.383       .  A
C2464      N2469   1.379       .  A
N2465      C2466   1.369       .  A
C2466      N2467   1.327       .  A
N2467      C2468   1.324       .  A
C2468      N2469   1.359       .  A
C2470      N2471   1.380       .  A
C2470      N2475   1.382       .  A
N2471      C2472   1.366       .  A
C2474      N2475   1.364       .  A
C2476      N2477   1.378       .  A
C2476      N2481   1.384       .  A
N2477      C2478   1.358       .  A
C2478      N3347   1.328       .  A
C2478      C3277   1.466       .  S
N2479      C3346   1.328       .  A
N2479      C3348   1.329       .  A
C2480      N3347   1.330       .  A
C2480      N2481   1.368       .  A
C2480      C3303   1.472       .  S
C2482      N2483   1.381       .  A
C2482      N2487   1.379       .  A
N2483      C2484   1.368       .  A
C2486      N2487   1.364       .  A
C2488      C2536   1.604       .  S
C2489      C2525   1.599       .  S
C2490      C2508   1.602       .  S
C2491      C2494   1.596       .  S
C2492      C2497   1.621       .  S
C2492      C2511   1.620       .  S
C2492      C2522   1.625       .  S
C2492      C2539   1.611       .  S
C2493      C2494   1.412       .  A
C2493      C2498   1.423       .  A
C2493      H2500   1.083       .  S
C2494      C2495   1.437       .  A
C2495      C2496   1.422       .  A
C2495      N2502   1.429       .  S
C2496      C2497   1.418       .  A
C2496      H2501   1.080       .  S
C2497      C2498   1.448       .  A
C2498      N2499   1.432       .  S
N2499      H2503   1.041       .  S
N2499      H2504   1.040       .  S
N2502      H2505   1.043       .  S
N2502      H2506   1.044       .  S
C2507      C2508   1.418       .  A
C2507      C2512   1.428       .  A
C2507      H2514   1.081       .  S
C2508      C2509   1.434       .  A
C2509      C2510   1.421       .  A
C2509      N2516   1.430       .  S
C2510      C2511   1.421       .  A
C2510      H2515   1.078       .  S
C2511      C2512   1.445       .  A
C2512      N2513   1.439       .  S
N2513      H2517   1.044       .  S
N2513      H2518   1.037       .  S
N2516      H2519   1.040       .  S
N2516      H2520   1.043       .  S
C2521      C2522   1.417       .  A
C2521      C2526   1.422       .  A
C2521      H2528   1.079       .  S
C2522      C2523   1.442       .  A
C2523      C2524   1.432       .  A
C2523      N2530   1.436       .  S
C2524      C2525   1.414       .  A
C2524      H2529   1.083       .  S
C2525      C2526   1.438       .  A
C2526      N2527   1.429       .  S
N2527      H2531   1.043       .  S
N2527      H2532   1.043       .  S
N2530      H2533   1.044       .  S
N2530      H2534   1.045       .  S
C2535      C2536   1.423       .  A
C2535      C2540   1.433       .  A
C2535      H2542   1.081       .  S
C2536      C2537   1.438       .  A
C2537      C2538   1.418       .  A
C2537      N2544   1.429       .  S
C2538      C2539   1.416       .  A
C2538      H2543   1.077       .  S
C2539      C2540   1.429       .  A
C2540      N2541   1.432       .  S
N2541      H2545   1.045       .  S
N2541      H2546   1.045       .  S
N2544      H2547   1.040       .  S
N2544      H2548   1.040       .  S
C2549      H2556   1.083       .  S
C2550      C2551   1.450       .  A
C2551      C2552   1.423       .  A
C2551      N2558   1.434       .  S
C2552      C2553   1.411       .  A
C2552      H2557   1.083       .  S
C2553      C2554   1.428       .  A
N2555      H2559   1.046       .  S
N2558      H2561   1.045       .  S
N2558      H2562   1.038       .  S
C2563      C2564   1.415       .  A
C2563      C2568   1.430       .  A
C2563      H2570   1.083       .  S
C2564      C2565   1.431       .  A
C2565      C2566   1.431       .  A
C2565      N2572   1.430       .  S
C2566      C2567   1.421       .  A
C2566      H2571   1.083       .  S
C2567      C2568   1.437       .  A
N2569      H2573   1.046       .  S
N2569      H2574   1.046   1_556  S
N2572      H2575   1.046       .  S
N2572      H2576   1.046       .  S
C2577      C2578   1.422       .  A
C2577      C2582   1.432       .  A
C2577      H2584   1.081       .  S
C2578      C2579   1.437       .  A
C2579      C2580   1.422   1_545  A
C2579      N2586   1.429   1_545  S
C2580      C2581   1.418       .  A
C2580      H3453   1.078       .  S
C2581      C3043   1.618       .  S
C2581      C2582   1.430   1_565  A
C2582      N2583   1.429       .  S
N2583      H2587   1.045   1_655  S
N2583      H3456   1.046   1_655  S
H2585      C3448   1.078       .  S
N2586      H2589   1.043       .  S
N2586      H2590   1.040   1_565  S
H2588      N3451   1.046   1_455  S
C2591      C2592   1.418       .  A
C2592      C2593   1.438   1_545  A
C2593      N2600   1.429       .  S
C2594      H2599   1.083       .  S
C2596      N2597   1.431       .  S
N2597      H2601   1.046       .  S
N2597      H2602   1.046   1_556  S
N2600      H2603   1.042       .  S
N2600      H3472   1.044       .  S
H2604      N3468   1.044       .  S
C2605      C2904   1.600       .  S
C2605      C2910   1.598       .  S
C2605      C2916   1.600       .  S
C2605      C3026   1.597       .  S
C2606      C2754   1.601       .  S
C2606      C2826   1.608       .  S
C2606      C2892   1.602       .  S
C2606      C3012   1.606       .  S
C2607      C2662   1.607       .  S
C2607      C2800   1.602       .  S
C2607      C2846   1.598       .  S
C2607      C2998   1.598       .  S
C2608      C2708   1.595       .  S
C2608      C2780   1.601       .  S
C2608      C2872   1.600       .  S
C2608      C2987   1.592       .  S
C2609      C3435   1.621       .  S
C2610      C2924   1.605       .  S
C2610      N2611   1.383       .  A
C2610      N2615   1.382       .  A
N2611      C2612   1.367       .  A
C2612      N2613   1.325       .  A
C2612      C2693   1.467       .  S
N2613      C2614   1.324       .  A
C2614      N2615   1.365       .  A
C2614      C2738   1.466       .  S
C2616      C2924   1.595       .  S
C2616      N2617   1.380       .  A
C2616      N2621   1.378       .  A
N2617      C2618   1.368       .  A
C2618      N2619   1.332       .  A
C2618      C2646   1.467       .  S
N2619      C2620   1.328       .  A
C2620      N2621   1.360       .  A
C2620      C2753   1.469       .  S
C2622      C2925   1.594       .  S
C2622      N2623   1.380       .  A
C2622      N2627   1.383       .  A
N2623      C2624   1.363       .  A
C2624      N2625   1.328       .  A
C2624      C2647   1.465       .  S
N2625      C2626   1.328       .  A
C2626      N2627   1.362       .  A
C2626      C2845   1.473       .  S
C2628      C2923   1.604       .  S
C2628      N2629   1.382       .  A
C2628      N2633   1.382       .  A
N2629      C2630   1.366       .  A
C2630      N2631   1.325       .  A
C2630      C2797   1.471       .  S
N2631      C2632   1.327       .  A
C2632      N2633   1.369       .  A
C2632      C2659   1.467       .  S
O2634     Ni2642   1.926       .  S
O2634      C2644   1.274       .  A
O2635     Ni2642   1.934       .  S
O2635      C2645   1.275       .  A
O2636     Ni2642   1.882       .  S
O2636      C2646   1.286       .  A
O2637     Ni3076   1.884   1_554  S
O2637      C2647   1.286       .  A
O2638     Ni3077   1.930   1_554  S
O2638      C2647   1.275       .  A
O2639     Ni2643   1.932       .  S
O2639      C2646   1.275       .  A
O2640     Ni2643   1.885       .  S
O2640      C2645   1.287       .  A
O2641     Ni2643   1.882       .  S
O2641      C2644   1.286       .  A
Ni2642     O3071   1.884       .  S
Ni2642    Ni2643   2.391       .  S
Ni2643     O3072   1.930       .  S
C2644      C2782   1.461       .  S
C2645      C3098   1.471       .  S
O2648     Ni2656   1.924       .  S
O2648      C2658   1.273       .  A
O2649     Ni3090   1.924   1_554  S
O2649      C2659   1.272       .  A
O2650     Ni2656   1.895       .  S
O2650      C2660   1.290       .  A
O2651     Ni2656   1.897       .  S
O2651      C2661   1.290       .  A
O2652     Ni2657   1.934       .  S
O2652      C2661   1.274       .  A
O2653     Ni2657   1.933       .  S
O2653      C2660   1.274       .  A
O2654     Ni3091   1.892   1_554  S
O2654      C2659   1.289       .  A
O2655     Ni2657   1.896       .  S
O2655      C2658   1.289       .  A
Ni2656     O3083   1.925       .  S
Ni2656    Ni2657   2.391       .  S
Ni2657     O3088   1.894       .  S
C2658      C2670   1.468       .  S
C2660      C3100   1.474       .  S
C2661      C2828   1.476       .  S
C2662      N2663   1.385       .  A
C2662      N2667   1.385       .  A
N2663      C2664   1.368       .  A
C2664      N3099   1.325       .  A
C2664      C3079   1.471       .  S
N2665      C3098   1.325       .  A
N2665      C3100   1.323       .  A
C2666      N3099   1.324       .  A
C2666      N2667   1.369       .  A
C2666      C3094   1.473       .  S
C2668      C2924   1.605       .  S
C2668      N2669   1.381       .  A
C2668      N2673   1.382       .  A
N2669      C2670   1.366       .  A
C2670      N2671   1.326       .  A
N2671      C2672   1.328       .  A
C2672      N2673   1.366       .  A
C2672      C2704   1.470       .  S
C2674      C2925   1.598       .  S
C2674      N2675   1.380       .  A
C2674      N2679   1.382       .  A
N2675      C2676   1.365       .  A
C2676      N2677   1.326       .  A
C2676      C2692   1.465       .  S
N2677      C2678   1.326       .  A
C2678      N2679   1.366       .  A
C2678      C2870   1.467       .  S
O2680     Ni2688   1.934       .  S
O2680      C2690   1.275       .  A
O2681     Ni2688   1.930       .  S
O2681      C2691   1.274   1_655  A
O2682      C2692   1.287       .  A
O2683     Ni2688   1.887       .  S
O2683      C2693   1.287       .  A
O2684     Ni2689   1.929       .  S
O2684      C2693   1.274       .  A
O2685      C2692   1.274       .  A
O2686     Ni2689   1.888       .  S
O2686      C2691   1.287   1_655  A
O2687     Ni2689   1.890       .  S
O2687      C2690   1.288       .  A
Ni2688    Ni2689   2.391       .  S
C2690      C2802   1.474       .  S
O2694     Ni2702   1.934       .  S
O2694      C2704   1.275       .  A
O2695      C2705   1.276       .  A
O2696     Ni2702   1.885       .  S
O2696      C2706   1.286       .  A
O2697     Ni2702   1.884       .  S
O2697      C2707   1.286   1_655  A
O2698     Ni2703   1.931       .  S
O2698      C2707   1.275   1_655  A
O2699     Ni2703   1.926       .  S
O2699      C2706   1.274       .  A
O2700      C2705   1.286       .  A
O2701     Ni2703   1.882       .  S
O2701      C2704   1.286       .  A
Ni2702    Ni2703   2.391       .  S
C2705      C2718   1.467       .  S
C2706      C2894   1.463       .  S
C2708      N2709   1.381       .  A
C2708      N2713   1.380       .  A
N2709      C2710   1.364       .  A
C2712      N2713   1.364       .  A
C2714      C2922   1.608       .  S
C2714      N2715   1.385       .  A
C2714      N2719   1.381       .  A
N2715      C2716   1.369       .  A
C2716      N2717   1.326       .  A
C2716      C2777   1.473       .  S
N2717      C2718   1.327       .  A
C2718      N2719   1.365       .  A
C2720      C2923   1.601       .  S
C2720      N2721   1.381       .  A
C2720      N2725   1.382       .  A
N2721      C2722   1.365       .  A
C2722      N2723   1.326       .  A
C2722      C2889   1.467       .  S
N2723      C2724   1.327       .  A
C2724      N2725   1.367       .  A
C2724      C2739   1.467       .  S
O2726     Ni2734   1.929       .  S
O2726      C2736   1.274       .  A
O2727     Ni2734   1.928       .  S
O2727      C2737   1.274   1_565  A
O2728     Ni2734   1.885       .  S
O2728      C2738   1.287       .  A
O2729      C2739   1.287       .  A
O2730      C2739   1.274       .  A
O2731     Ni2735   1.929       .  S
O2731      C2738   1.274       .  A
O2732     Ni2735   1.893       .  S
O2732      C2737   1.288   1_565  A
O2733     Ni2735   1.895       .  S
O2733      C2736   1.288       .  A
Ni2734    Ni2735   2.391       .  S
C2736      C2848   1.470       .  S
O2740     Ni2748   1.940       .  S
O2740      C2750   1.278       .  A
O2741     Ni2748   1.938       .  S
O2741      C2751   1.278   1_565  A
O2742      C2752   1.285       .  A
O2743     Ni2748   1.887       .  S
O2743      C2753   1.285       .  A
O2744     Ni2749   1.934       .  S
O2744      C2753   1.277       .  A
O2745      C2752   1.276       .  A
O2746     Ni2749   1.876       .  S
O2746      C2751   1.283   1_565  A
O2747     Ni2749   1.878       .  S
O2747      C2750   1.284       .  A
Ni2748    Ni2749   2.389       .  S
C2750      C2876   1.470       .  S
C2752      C2764   1.467       .  S
C2754      N2755   1.382       .  A
C2754      N2759   1.380       .  A
N2755      C2756   1.368       .  A
C2758      N2759   1.360       .  A
C2760      C2922   1.596       .  S
C2760      N2761   1.379       .  A
C2760      N2765   1.378       .  A
N2761      C2762   1.367       .  A
C2762      N2763   1.331       .  A
C2762      C2825   1.463       .  S
N2763      C2764   1.327       .  A
C2764      N2765   1.359       .  A
O2766     Ni3208   1.934   1_554  S
O2766      C2776   1.274       .  A
O2767     Ni2774   1.932       .  S
O2767      C2777   1.275       .  A
O2768     Ni2774   1.893       .  S
O2768      C2778   1.289       .  A
O2769     Ni2774   1.892       .  S
O2769      C2779   1.288       .  A
O2770     Ni2775   1.921       .  S
O2770      C2779   1.272       .  A
O2771     Ni2775   1.925       .  S
O2771      C2778   1.273       .  A
O2772     Ni2775   1.896       .  S
O2772      C2777   1.289       .  A
O2773     Ni3209   1.893   1_554  S
O2773      C2776   1.289       .  A
Ni2774     O3200   1.935       .  S
Ni2774    Ni2775   2.391       .  S
Ni2775     O3207   1.893       .  S
C2776      C2808   1.474       .  S
C2778      C2784   1.468       .  S
C2779      C3354   1.463       .  S
C2780      N2781   1.379       .  A
C2780      N2785   1.383       .  A
N2781      C2782   1.364       .  A
C2782      N2783   1.326       .  A
N2783      C2784   1.325       .  A
C2784      N2785   1.368       .  A
O2786      C2796   1.275       .  A
O2787     Ni2794   1.932       .  S
O2787      C2797   1.275       .  A
O2788     Ni2794   1.884       .  S
O2788      C2798   1.286   1_655  A
O2789     Ni2794   1.882       .  S
O2789      C2799   1.286       .  A
O2790     Ni2795   1.936       .  S
O2790      C2799   1.276       .  A
O2791     Ni2795   1.936       .  S
O2791      C2798   1.276   1_655  A
O2792     Ni2795   1.892       .  S
O2792      C2797   1.288       .  A
O2793      C2796   1.288       .  A
Ni2794    Ni2795   2.389       .  S
C2796      C2810   1.473       .  S
C2799      C2804   1.470       .  S
C2800      N2801   1.387       .  A
C2800      N2805   1.383       .  A
N2801      C2802   1.369       .  A
C2802      N2803   1.324       .  A
N2803      C2804   1.324       .  A
C2804      N2805   1.364       .  A
C2806      C2925   1.608       .  S
C2806      N2807   1.386       .  A
C2806      N2811   1.383       .  A
N2807      C2808   1.372       .  A
C2808      N2809   1.328       .  A
N2809      C2810   1.325       .  A
C2810      N2811   1.365       .  A
O2812     Ni2820   1.927       .  S
O2812      C2822   1.274       .  A
O2813     Ni2820   1.924       .  S
O2813      C2823   1.274       .  A
O2814     Ni3254   1.886   1_554  S
O2814      C2824   1.286       .  A
O2815     Ni2820   1.883       .  S
O2815      C2825   1.286       .  A
O2816     Ni2821   1.926       .  S
O2816      C2825   1.274       .  A
O2817     Ni3255   1.929   1_554  S
O2817      C2824   1.275       .  A
O2818     Ni2821   1.882       .  S
O2818      C2823   1.286       .  A
O2819     Ni2821   1.887       .  S
O2819      C2822   1.287       .  A
Ni2820     O3248   1.886       .  S
Ni2820    Ni2821   2.392       .  S
Ni2821     O3251   1.929       .  S
C2822      C3352   1.466       .  S
C2823      C2830   1.460       .  S
C2824      C2854   1.466       .  S
C2826      N2827   1.388       .  A
C2826      N2831   1.378       .  A
N2827      C2828   1.372       .  A
C2828      N2829   1.325       .  A
N2829      C2830   1.324       .  A
C2830      N2831   1.361       .  A
O2832     Ni2840   1.938       .  S
O2832      C2842   1.278       .  A
O2833     Ni2840   1.935   1_545  S
O2833      C2843   1.278       .  A
O2834      C2844   1.282       .  A
O2835     Ni2840   1.877       .  S
O2835      C2845   1.283       .  A
O2836     Ni2841   1.944       .  S
O2836      C2845   1.279       .  A
O2837      C2844   1.278       .  A
O2838     Ni2841   1.878   1_545  S
O2838      C2843   1.282       .  A
O2839     Ni2841   1.877       .  S
O2839      C2842   1.283       .  A
Ni2840    Ni2841   2.388       .  S
C2842      C2850   1.469       .  S
C2844      C2856   1.467       .  S
C2846      N2847   1.381       .  A
C2846      N2851   1.379       .  A
N2847      C2848   1.367       .  A
C2848      N2849   1.329       .  A
N2849      C2850   1.330       .  A
C2850      N2851   1.362       .  A
C2852      C2923   1.594       .  S
C2852      N2853   1.380       .  A
C2852      N2857   1.379       .  A
N2853      C2854   1.365       .  A
C2854      N2855   1.330       .  A
N2855      C2856   1.329       .  A
C2856      N2857   1.360       .  A
O2858     Ni2866   1.932       .  S
O2858      C2868   1.275       .  A
O2859     Ni2866   1.934       .  S
O2859      C2869   1.276   1_565  A
O2860     Ni2866   1.886       .  S
O2860      C2870   1.287       .  A
O2861      C2871   1.285       .  A
O2862      C2871   1.275       .  A
O2863     Ni2867   1.929       .  S
O2863      C2870   1.274       .  A
O2864     Ni2867   1.890       .  S
O2864      C2869   1.287   1_565  A
O2865     Ni2867   1.889       .  S
O2865      C2868   1.287       .  A
Ni2866    Ni2867   2.391       .  S
C2868      C2874   1.470       .  S
C2871      C2902   1.462       .  S
C2872      N2873   1.382       .  A
C2872      N2877   1.381       .  A
N2873      C2874   1.366       .  A
C2874      N2875   1.328       .  A
N2875      C2876   1.329       .  A
C2876      N2877   1.363       .  A
O2878      C2888   1.273       .  A
O2879     Ni2886   1.929       .  S
O2879      C2889   1.274       .  A
O2880     Ni2886   1.892       .  S
O2880      C2890   1.288       .  A
O2881     Ni2886   1.889       .  S
O2881      C2891   1.288   1_655  A
O2882     Ni2887   1.923       .  S
O2882      C2891   1.273   1_655  A
O2883     Ni2887   1.925       .  S
O2883      C2890   1.273       .  A
O2884     Ni2887   1.887       .  S
O2884      C2889   1.287       .  A
O2885      C2888   1.288       .  A
Ni2886    Ni2887   2.392       .  S
C2888      C2900   1.466       .  S
C2890      C2896   1.467       .  S
C2892      N2893   1.377       .  A
C2892      N2897   1.381       .  A
N2893      C2894   1.362       .  A
C2894      N2895   1.328       .  A
N2895      C2896   1.329       .  A
C2896      N2897   1.368       .  A
C2898      C2922   1.603       .  S
C2898      N2899   1.383       .  A
C2898      N2903   1.379       .  A
N2899      C2900   1.369       .  A
C2900      N2901   1.327       .  A
N2901      C2902   1.323       .  A
C2902      N2903   1.359       .  A
C2904      N2905   1.380       .  A
C2904      N2909   1.383       .  A
N2905      C2906   1.366       .  A
C2908      N2909   1.365       .  A
C2910      N2911   1.378       .  A
C2910      N2915   1.384       .  A
N2911      C2912   1.359       .  A
C2914      N2915   1.368       .  A
C2916      N2917   1.381       .  A
C2916      N2921   1.378       .  A
N2917      C2918   1.368       .  A
C2918      N3353   1.328       .  A
C2918      C3256   1.465       .  S
N2919      C3352   1.328       .  A
N2919      C3354   1.326       .  A
C2920      N3353   1.326       .  A
C2920      N2921   1.364       .  A
C2920      C3213   1.464       .  S
C2922      C2970   1.603       .  S
C2923      C2959   1.598       .  S
C2924      C2942   1.603       .  S
C2925      C2928   1.598       .  S
C2926      C2931   1.622       .  S
C2926      C2945   1.621       .  S
C2926      C2956   1.624       .  S
C2926      C2973   1.610       .  S
C2927      C2928   1.412       .  A
C2927      C2932   1.424       .  A
C2927      H2934   1.083       .  S
C2928      C2929   1.437       .  A
C2929      C2930   1.422       .  A
C2929      N2936   1.429       .  S
C2930      C2931   1.418       .  A
C2930      H2935   1.080       .  S
C2931      C2932   1.448       .  A
C2932      N2933   1.433       .  S
N2933      H2937   1.040       .  S
N2933      H2938   1.041       .  S
N2936      H2939   1.043       .  S
N2936      H2940   1.044       .  S
C2941      C2942   1.419       .  A
C2941      C2946   1.428       .  A
C2941      H2948   1.081       .  S
C2942      C2943   1.434       .  A
C2943      C2944   1.421       .  A
C2943      N2950   1.430       .  S
C2944      C2945   1.421       .  A
C2944      H2949   1.078       .  S
C2945      C2946   1.445       .  A
C2946      N2947   1.439       .  S
N2947      H2951   1.044       .  S
N2947      H2952   1.037       .  S
N2950      H2953   1.040       .  S
N2950      H2954   1.043       .  S
C2955      C2956   1.417       .  A
C2955      C2960   1.421       .  A
C2955      H2962   1.078       .  S
C2956      C2957   1.442       .  A
C2957      C2958   1.431       .  A
C2957      N2964   1.436       .  S
C2958      C2959   1.413       .  A
C2958      H2963   1.083       .  S
C2959      C2960   1.438       .  A
C2960      N2961   1.429       .  S
N2961      H2965   1.043       .  S
N2961      H2966   1.043       .  S
N2964      H2967   1.043       .  S
N2964      H2968   1.046       .  S
C2969      C2970   1.422       .  A
C2969      C2974   1.432       .  A
C2969      H2976   1.081       .  S
C2970      C2971   1.438       .  A
C2971      C2972   1.418       .  A
C2971      N2978   1.429       .  S
C2972      C2973   1.416       .  A
C2972      H2977   1.077       .  S
C2973      C2974   1.429       .  A
C2974      N2975   1.432       .  S
N2975      H2979   1.045       .  S
N2975      H2980   1.045       .  S
N2978      H2981   1.040       .  S
N2978      H2982   1.041       .  S
C2983      H2990   1.083       .  S
C2984      C2985   1.450       .  A
C2985      C2986   1.424       .  A
C2985      N2992   1.434       .  S
C2986      C2987   1.411       .  A
C2986      H2991   1.083       .  S
C2987      C2988   1.428       .  A
N2989      H2993   1.046       .  S
N2992      H2995   1.045       .  S
N2992      H2996   1.038       .  S
C2997      C2998   1.415       .  A
C2997      C3002   1.430   1_554  A
C2997      H3004   1.083       .  S
C2998      C2999   1.431       .  A
C2999      C3000   1.430       .  A
C2999      N3006   1.430       .  S
C3000      C3001   1.421   1_554  A
C3000      H3005   1.083       .  S
C3001      C3043   1.622       .  S
C3001      C3002   1.436       .  A
C3002      N3437   1.431       .  S
N3003      C3436   1.431       .  S
N3003      H3007   1.046       .  S
N3003      H3008   1.046       .  S
N3006      H3009   1.046       .  S
N3006      H3010   1.046       .  S
C3011      C3012   1.422       .  A
C3011      C3016   1.433       .  A
C3011      H3018   1.081       .  S
C3012      C3013   1.437       .  A
C3013      C3014   1.422       .  A
C3013      N3020   1.429       .  S
C3014      C3015   1.418       .  A
C3015      C3016   1.430       .  A
C3016      N3017   1.429       .  S
N3017      H3021   1.045   1_655  S
N3020      H3023   1.043       .  S
N3020      H3024   1.040       .  S
C3025      C3026   1.417       .  A
C3025      C3464   1.428   1_554  A
C3025      H3466   1.083       .  S
C3026      C3027   1.439       .  A
C3027      N3034   1.429       .  S
C3028      H3033   1.083       .  S
C3029      C3464   1.432       .  A
C3030      C3459   1.430       .  A
C3030      C3463   1.432       .  A
C3030      N3031   1.431       .  S
N3031      H3035   1.046       .  S
N3031      H3036   1.045       .  S
H3032      C3459   1.083       .  S
N3034      H3037   1.042       .  S
C3039      C3338   1.601       .  S
C3039      C3344   1.599       .  S
C3039      C3350   1.601       .  S
C3039      C3460   1.600       .  S
C3040      C3188   1.601       .  S
C3040      C3260   1.609       .  S
C3040      C3326   1.601       .  S
C3040      C3446   1.605       .  S
C3041      C3096   1.607       .  S
C3041      C3234   1.602       .  S
C3041      C3280   1.599       .  S
C3041      C3432   1.598       .  S
C3042      C3142   1.596       .  S
C3042      C3214   1.601       .  S
C3042      C3306   1.600       .  S
C3042      C3421   1.592       .  S
C3044      C3358   1.604       .  S
C3044      N3045   1.383       .  A
C3044      N3049   1.382       .  A
N3045      C3046   1.367       .  A
C3046      N3047   1.325       .  A
C3046      C3127   1.467       .  S
N3047      C3048   1.324       .  A
C3048      N3049   1.364       .  A
C3048      C3172   1.465       .  S
C3050      C3358   1.594       .  S
C3050      N3051   1.380       .  A
C3050      N3055   1.379       .  A
N3051      C3052   1.367       .  A
C3052      N3053   1.332       .  A
C3052      C3080   1.466       .  S
N3053      C3054   1.328       .  A
C3054      N3055   1.360       .  A
C3054      C3187   1.469       .  S
C3056      C3359   1.591       .  S
C3056      N3057   1.379       .  A
C3056      N3061   1.382       .  A
N3057      C3058   1.363       .  A
C3058      N3059   1.328       .  A
C3058      C3081   1.464       .  S
N3059      C3060   1.328       .  A
C3060      N3061   1.362       .  A
C3060      C3279   1.471       .  S
C3062      C3357   1.605       .  S
C3062      N3063   1.382       .  A
C3062      N3067   1.383       .  A
N3063      C3064   1.366       .  A
C3064      N3065   1.325       .  A
C3064      C3231   1.470       .  S
N3065      C3066   1.326       .  A
C3066      N3067   1.369       .  A
C3066      C3093   1.468       .  S
O3068     Ni3076   1.927       .  S
O3068      C3078   1.274       .  A
O3069     Ni3076   1.934       .  S
O3069      C3079   1.275   1_556  A
O3070     Ni3076   1.882       .  S
O3070      C3080   1.286       .  A
O3071      C3081   1.285       .  A
O3072      C3081   1.275       .  A
O3073     Ni3077   1.931       .  S
O3073      C3080   1.275       .  A
O3074     Ni3077   1.885       .  S
O3074      C3079   1.287   1_556  A
O3075     Ni3077   1.882       .  S
O3075      C3078   1.286       .  A
Ni3076    Ni3077   2.391       .  S
C3078      C3216   1.462       .  S
O3082     Ni3090   1.925       .  S
O3082      C3092   1.273       .  A
O3083      C3093   1.272       .  A
O3084     Ni3090   1.895       .  S
O3084      C3094   1.290   1_556  A
O3085     Ni3090   1.897       .  S
O3085      C3095   1.290       .  A
O3086     Ni3091   1.935       .  S
O3086      C3095   1.274       .  A
O3087     Ni3091   1.932       .  S
O3087      C3094   1.274   1_556  A
O3088      C3093   1.289       .  A
O3089     Ni3091   1.897       .  S
O3089      C3092   1.289       .  A
Ni3090    Ni3091   2.391       .  S
C3092      C3104   1.469       .  S
C3095      C3262   1.477       .  S
C3096      N3097   1.385       .  A
C3096      N3101   1.386       .  A
N3097      C3098   1.368       .  A
C3100      N3101   1.369       .  A
C3102      C3358   1.607       .  S
C3102      N3103   1.382       .  A
C3102      N3107   1.382       .  A
N3103      C3104   1.366       .  A
C3104      N3105   1.325       .  A
N3105      C3106   1.328       .  A
C3106      N3107   1.367       .  A
C3106      C3138   1.470       .  S
C3108      C3359   1.600       .  S
C3108      N3109   1.381       .  A
C3108      N3113   1.382       .  A
N3109      C3110   1.366       .  A
C3110      N3111   1.326       .  A
C3110      C3126   1.466       .  S
N3111      C3112   1.326       .  A
C3112      N3113   1.366       .  A
C3112      C3304   1.468       .  S
O3114     Ni3122   1.934       .  S
O3114      C3124   1.275       .  A
O3115     Ni3122   1.929       .  S
O3115      C3125   1.274   1_655  A
O3116      C3126   1.287       .  A
O3117     Ni3122   1.887       .  S
O3117      C3127   1.287       .  A
O3118     Ni3123   1.929       .  S
O3118      C3127   1.274       .  A
O3119      C3126   1.274       .  A
O3120     Ni3123   1.889       .  S
O3120      C3125   1.287   1_655  A
O3121     Ni3123   1.890       .  S
O3121      C3124   1.288       .  A
Ni3122    Ni3123   2.391       .  S
C3124      C3236   1.474       .  S
O3128     Ni3136   1.935       .  S
O3128      C3138   1.275       .  A
O3129      C3139   1.276       .  A
O3130     Ni3136   1.886       .  S
O3130      C3140   1.286       .  A
O3131     Ni3136   1.886       .  S
O3131      C3141   1.287   1_655  A
O3132     Ni3137   1.931       .  S
O3132      C3141   1.275   1_655  A
O3133     Ni3137   1.925       .  S
O3133      C3140   1.274       .  A
O3134      C3139   1.286       .  A
O3135     Ni3137   1.882       .  S
O3135      C3138   1.286       .  A
Ni3136    Ni3137   2.391       .  S
C3139      C3152   1.468       .  S
C3140      C3328   1.463       .  S
C3142      N3143   1.381       .  A
C3142      N3147   1.380       .  A
N3143      C3144   1.365       .  A
C3146      N3147   1.364       .  A
C3148      C3356   1.609       .  S
C3148      N3149   1.385       .  A
C3148      N3153   1.381       .  A
N3149      C3150   1.369       .  A
C3150      N3151   1.326       .  A
C3150      C3211   1.472       .  S
N3151      C3152   1.327       .  A
C3152      N3153   1.365       .  A
C3154      C3357   1.602       .  S
C3154      N3155   1.382       .  A
C3154      N3159   1.382       .  A
N3155      C3156   1.366       .  A
C3156      N3157   1.325       .  A
C3156      C3323   1.468       .  S
N3157      C3158   1.326       .  A
C3158      N3159   1.366       .  A
C3158      C3173   1.467       .  S
O3160     Ni3168   1.931       .  S
O3160      C3170   1.274       .  A
O3161     Ni3168   1.929       .  S
O3161      C3171   1.274   1_565  A
O3162     Ni3168   1.885       .  S
O3162      C3172   1.287       .  A
O3163      C3173   1.287       .  A
O3164      C3173   1.274       .  A
O3165     Ni3169   1.927       .  S
O3165      C3172   1.274       .  A
O3166     Ni3169   1.892       .  S
O3166      C3171   1.288   1_565  A
O3167     Ni3169   1.894       .  S
O3167      C3170   1.288       .  A
Ni3168    Ni3169   2.391       .  S
C3170      C3282   1.471       .  S
O3174     Ni3182   1.940       .  S
O3174      C3184   1.278       .  A
O3175     Ni3182   1.938       .  S
O3175      C3185   1.278   1_565  A
O3176      C3186   1.285       .  A
O3177     Ni3182   1.888       .  S
O3177      C3187   1.285       .  A
O3178     Ni3183   1.932       .  S
O3178      C3187   1.277       .  A
O3179      C3186   1.277       .  A
O3180     Ni3183   1.877       .  S
O3180      C3185   1.283   1_565  A
O3181     Ni3183   1.880       .  S
O3181      C3184   1.284       .  A
Ni3182    Ni3183   2.389       .  S
C3184      C3310   1.471       .  S
C3186      C3198   1.468       .  S
C3188      N3189   1.383       .  A
C3188      N3193   1.380       .  A
N3189      C3190   1.368       .  A
C3192      N3193   1.360       .  A
C3194      C3356   1.597       .  S
C3194      N3195   1.379       .  A
C3194      N3199   1.379       .  A
N3195      C3196   1.367       .  A
C3196      N3197   1.331       .  A
C3196      C3259   1.463       .  S
N3197      C3198   1.327       .  A
C3198      N3199   1.360       .  A
O3200      C3210   1.274       .  A
O3201     Ni3208   1.932       .  S
O3201      C3211   1.275       .  A
O3202     Ni3208   1.893       .  S
O3202      C3212   1.289       .  A
O3203     Ni3208   1.892       .  S
O3203      C3213   1.288   1_556  A
O3204     Ni3209   1.922       .  S
O3204      C3213   1.272   1_556  A
O3205     Ni3209   1.924       .  S
O3205      C3212   1.273       .  A
O3206     Ni3209   1.895       .  S
O3206      C3211   1.289       .  A
O3207      C3210   1.289       .  A
Ni3208    Ni3209   2.391       .  S
C3210      C3242   1.475       .  S
C3212      C3218   1.468       .  S
C3214      N3215   1.379       .  A
C3214      N3219   1.383       .  A
N3215      C3216   1.364       .  A
C3216      N3217   1.326       .  A
N3217      C3218   1.325       .  A
C3218      N3219   1.368       .  A
O3220      C3230   1.275       .  A
O3221     Ni3228   1.932       .  S
O3221      C3231   1.275       .  A
O3222     Ni3228   1.885       .  S
O3222      C3232   1.286   1_655  A
O3223     Ni3228   1.882       .  S
O3223      C3233   1.286       .  A
O3224     Ni3229   1.936       .  S
O3224      C3233   1.276       .  A
O3225     Ni3229   1.935       .  S
O3225      C3232   1.276   1_655  A
O3226     Ni3229   1.891       .  S
O3226      C3231   1.288       .  A
O3227      C3230   1.288       .  A
Ni3228    Ni3229   2.389       .  S
C3230      C3244   1.472       .  S
C3233      C3238   1.471       .  S
C3234      N3235   1.387       .  A
C3234      N3239   1.384       .  A
N3235      C3236   1.369       .  A
C3236      N3237   1.324       .  A
N3237      C3238   1.324       .  A
C3238      N3239   1.364       .  A
C3240      C3359   1.607       .  S
C3240      N3241   1.386       .  A
C3240      N3245   1.382       .  A
N3241      C3242   1.372       .  A
C3242      N3243   1.328       .  A
N3243      C3244   1.325       .  A
C3244      N3245   1.364       .  A
O3246     Ni3254   1.927       .  S
O3246      C3256   1.274   1_556  A
O3247     Ni3254   1.924       .  S
O3247      C3257   1.274       .  A
O3248      C3258   1.286       .  A
O3249     Ni3254   1.884       .  S
O3249      C3259   1.286       .  A
O3250     Ni3255   1.926       .  S
O3250      C3259   1.274       .  A
O3251      C3258   1.275       .  A
O3252     Ni3255   1.882       .  S
O3252      C3257   1.286       .  A
O3253     Ni3255   1.886       .  S
O3253      C3256   1.287   1_556  A
Ni3254    Ni3255   2.392       .  S
C3257      C3264   1.460       .  S
C3258      C3288   1.466       .  S
C3260      N3261   1.389       .  A
C3260      N3265   1.378       .  A
N3261      C3262   1.373       .  A
C3262      N3263   1.324       .  A
N3263      C3264   1.323       .  A
C3264      N3265   1.360       .  A
O3266     Ni3274   1.939       .  S
O3266      C3276   1.278       .  A
O3267     Ni3274   1.936   1_545  S
O3267      C3277   1.278       .  A
O3268      C3278   1.282       .  A
O3269     Ni3274   1.877       .  S
O3269      C3279   1.283       .  A
O3270     Ni3275   1.943       .  S
O3270      C3279   1.279       .  A
O3271      C3278   1.279       .  A
O3272     Ni3275   1.878       .  S
O3272      C3277   1.283   1_565  A
O3273     Ni3275   1.879       .  S
O3273      C3276   1.284       .  A
Ni3274    Ni3275   2.388       .  S
C3276      C3284   1.470       .  S
C3278      C3290   1.467       .  S
C3280      N3281   1.382       .  A
C3280      N3285   1.380       .  A
N3281      C3282   1.367       .  A
C3282      N3283   1.329       .  A
N3283      C3284   1.330       .  A
C3284      N3285   1.363       .  A
C3286      C3357   1.594       .  S
C3286      N3287   1.380       .  A
C3286      N3291   1.379       .  A
N3287      C3288   1.365       .  A
C3288      N3289   1.330       .  A
N3289      C3290   1.329       .  A
C3290      N3291   1.359       .  A
O3292     Ni3300   1.932       .  S
O3292      C3302   1.275       .  A
O3293     Ni3300   1.935       .  S
O3293      C3303   1.276   1_565  A
O3294     Ni3300   1.887       .  S
O3294      C3304   1.287       .  A
O3295      C3305   1.285       .  A
O3296      C3305   1.275       .  A
O3297     Ni3301   1.929       .  S
O3297      C3304   1.274       .  A
O3298     Ni3301   1.890       .  S
O3298      C3303   1.287   1_565  A
O3299     Ni3301   1.888       .  S
O3299      C3302   1.287       .  A
Ni3300    Ni3301   2.391       .  S
C3302      C3308   1.469       .  S
C3305      C3336   1.463       .  S
C3306      N3307   1.381       .  A
C3306      N3311   1.382       .  A
N3307      C3308   1.366       .  A
C3308      N3309   1.328       .  A
N3309      C3310   1.328       .  A
C3310      N3311   1.363       .  A
O3312      C3322   1.273       .  A
O3313     Ni3320   1.929       .  S
O3313      C3323   1.274       .  A
O3314     Ni3320   1.890       .  S
O3314      C3324   1.288       .  A
O3315     Ni3320   1.888       .  S
O3315      C3325   1.287   1_655  A
O3316     Ni3321   1.923       .  S
O3316      C3325   1.273   1_655  A
O3317     Ni3321   1.925       .  S
O3317      C3324   1.273       .  A
O3318     Ni3321   1.889       .  S
O3318      C3323   1.288       .  A
O3319      C3322   1.288       .  A
Ni3320    Ni3321   2.392       .  S
C3322      C3334   1.466       .  S
C3324      C3330   1.467       .  S
C3326      N3327   1.376       .  A
C3326      N3331   1.381       .  A
N3327      C3328   1.362       .  A
C3328      N3329   1.328       .  A
N3329      C3330   1.329       .  A
C3330      N3331   1.368       .  A
C3332      C3356   1.603       .  S
C3332      N3333   1.383       .  A
C3332      N3337   1.379       .  A
N3333      C3334   1.369       .  A
C3334      N3335   1.327       .  A
N3335      C3336   1.323       .  A
C3336      N3337   1.359       .  A
C3338      N3339   1.380       .  A
C3338      N3343   1.383       .  A
N3339      C3340   1.366       .  A
C3342      N3343   1.365       .  A
C3344      N3345   1.378       .  A
C3344      N3349   1.384       .  A
N3345      C3346   1.359       .  A
C3348      N3349   1.369       .  A
C3350      N3351   1.381       .  A
C3350      N3355   1.378       .  A
N3351      C3352   1.368       .  A
C3354      N3355   1.364       .  A
C3356      C3404   1.604       .  S
C3357      C3393   1.599       .  S
C3358      C3376   1.602       .  S
C3359      C3362   1.597       .  S
C3360      C3365   1.621       .  S
C3360      C3379   1.621       .  S
C3360      C3390   1.625       .  S
C3360      C3407   1.610       .  S
C3361      C3362   1.412       .  A
C3361      C3366   1.423       .  A
C3361      H3368   1.083       .  S
C3362      C3363   1.438       .  A
C3363      C3364   1.422       .  A
C3363      N3370   1.429       .  S
C3364      C3365   1.418       .  A
C3364      H3369   1.081       .  S
C3365      C3366   1.448       .  A
C3366      N3367   1.433       .  S
N3367      H3371   1.041       .  S
N3367      H3372   1.041       .  S
N3370      H3373   1.043       .  S
N3370      H3374   1.044       .  S
C3375      C3376   1.418       .  A
C3375      C3380   1.427       .  A
C3375      H3382   1.080       .  S
C3376      C3377   1.434       .  A
C3377      C3378   1.422       .  A
C3377      N3384   1.430       .  S
C3378      C3379   1.421       .  A
C3378      H3383   1.078       .  S
C3379      C3380   1.445       .  A
C3380      N3381   1.439       .  S
N3381      H3385   1.044       .  S
N3381      H3386   1.036       .  S
N3384      H3387   1.040       .  S
N3384      H3388   1.043       .  S
C3389      C3390   1.417       .  A
C3389      C3394   1.422       .  A
C3389      H3396   1.078       .  S
C3390      C3391   1.442       .  A
C3391      C3392   1.432       .  A
C3391      N3398   1.436       .  S
C3392      C3393   1.414       .  A
C3392      H3397   1.083       .  S
C3393      C3394   1.438       .  A
C3394      N3395   1.429       .  S
N3395      H3399   1.043       .  S
N3395      H3400   1.043       .  S
N3398      H3401   1.044       .  S
N3398      H3402   1.045       .  S
C3403      C3404   1.423       .  A
C3403      C3408   1.433       .  A
C3403      H3410   1.081       .  S
C3404      C3405   1.438       .  A
C3405      C3406   1.418       .  A
C3405      N3412   1.429       .  S
C3406      C3407   1.416       .  A
C3406      H3411   1.078       .  S
C3407      C3408   1.429       .  A
C3408      N3409   1.432       .  S
N3409      H3413   1.045       .  S
N3409      H3414   1.045       .  S
N3412      H3415   1.039       .  S
N3412      H3416   1.041       .  S
C3417      H3424   1.083       .  S
C3418      C3419   1.450       .  A
C3419      C3420   1.423       .  A
C3419      N3426   1.434       .  S
C3420      C3421   1.411       .  A
C3420      H3425   1.083       .  S
C3421      C3422   1.428       .  A
N3423      H3427   1.046       .  S
N3426      H3429   1.045       .  S
N3426      H3430   1.038       .  S
C3431      C3432   1.415       .  A
C3431      C3436   1.431       .  A
C3431      H3438   1.083       .  S
C3432      C3433   1.431       .  A
C3433      C3434   1.429       .  A
C3433      N3440   1.430       .  S
C3434      C3435   1.420       .  A
C3434      H3439   1.083       .  S
C3435      C3436   1.436       .  A
N3437      H3441   1.046       .  S
N3437      H3442   1.046   1_556  S
N3440      H3443   1.046       .  S
N3440      H3444   1.046       .  S
C3445      C3446   1.421       .  A
C3445      C3450   1.432       .  A
C3445      H3452   1.081       .  S
C3446      C3447   1.437       .  A
C3447      C3448   1.422       .  A
C3447      N3454   1.429       .  S
C3448      C3449   1.418       .  A
C3449      C3450   1.429       .  A
C3450      N3451   1.429       .  S
N3451      H3455   1.045       .  S
N3454      H3457   1.043       .  S
N3454      H3458   1.040       .  S
C3459      C3460   1.418       .  A
C3460      C3461   1.439       .  A
C3461      N3468   1.429       .  S
C3462      H3467   1.083       .  S
C3464      N3465   1.431       .  S
N3465      H3469   1.046       .  S
N3465      H3470   1.046   1_556  S
N3468      H3471   1.042       .  S
