geometry optimzed in LAMMPS
_audit_creation_date              2020-12-01 
_audit_creation_method            'lammps2cif' 
_symmetry_space_group_name_H-M    'P1' 
_symmetry_Int_Tables_number       1 
_symmetry_cell_setting            triclinic 
loop_ 
_symmetry_equiv_pos_as_xyz 
  x,y,z 
_cell_length_a                    30.99473109 
_cell_length_b                    31.14044237127377 
_cell_length_c                    30.858204414423962 
_cell_angle_alpha                 89.21903095113454 
_cell_angle_beta                  89.4560532760672 
_cell_angle_gamma                 90.68484794368912 
loop_ 
_atom_site_label 
_atom_site_type_symbol 
_atom_site_fract_x 
_atom_site_fract_y 
_atom_site_fract_z 
_atom_site_charge 
C1          C  0.11409728  0.84123297  0.46336191     0.01000
C2          C  0.09798604  0.83247508  0.50513839     0.01000
C3          C  0.12095966  0.85017704  0.54067487     0.01000
C4          C  0.14875865  0.88770180  0.52949041     0.01000
C5          C  0.15389871  0.90332829  0.48554061     0.01000
C6          C  0.14215575  0.87458937  0.45218619     0.01000
C7          C  0.11215773  0.14630199  0.45841127     0.01000
C8          C  0.14563163  0.11403100  0.45676464     0.01000
C9          C  0.15401158  0.09083548  0.49597503     0.01000
C10         C  0.14516431  0.11123744  0.53574711     0.01000
C11         C  0.11618000  0.14679963  0.53840527     0.01000
C12         C  0.09382946  0.16051919  0.49958222     0.01000
C13         C  0.86091762  0.10937932  0.46495229     0.01000
C14         C  0.89025163  0.14558140  0.46202045     0.01000
C15         C  0.91155947  0.15898263  0.50109572     0.01000
C16         C  0.89149121  0.14437828  0.54207376     0.01000
C17         C  0.85492999  0.11401444  0.54379742     0.01000
C18         C  0.84796229  0.08909647  0.50526159     0.01000
C19         C  0.89460158  0.83814823  0.54006685     0.01000
C20         C  0.91074636  0.82443429  0.49915882     0.01000
C21         C  0.88851597  0.83629923  0.45988611     0.01000
C22         C  0.86106053  0.87448791  0.46224365     0.01000
C23         C  0.85290829  0.89685516  0.50253744     0.01000
C24         C  0.86603916  0.87377755  0.54125888     0.01000
C25         C  0.54093069  0.14404993  0.12181353     0.01000
C26         C  0.50080476  0.15304051  0.10028734     0.01000
C27         C  0.46270038  0.13803015  0.12393422     0.01000
C28         C  0.46407185  0.11215518  0.16289877     0.01000
C29         C  0.50479691  0.09386200  0.17509421     0.01000
C30         C  0.54338286  0.11449978  0.15866658     0.01000
C31         C  0.54236386  0.14584881  0.88813972     0.01000
C32         C  0.50042288  0.15541057  0.90552379     0.01000
C33         C  0.46369696  0.14606301  0.87734115     0.01000
C34         C  0.47037641  0.11186811  0.84559658     0.01000
C35         C  0.51109925  0.09274452  0.84109418     0.01000
C36         C  0.54770895  0.11618627  0.85367067     0.01000
C37         C  0.47013862  0.86325715  0.11646676     0.01000
C38         C  0.46503152  0.88843163  0.15468876     0.01000
C39         C  0.50242807  0.91054516  0.17196414     0.01000
C40         C  0.54421188  0.89664311  0.15777807     0.01000
C41         C  0.54887606  0.86815118  0.12213362     0.01000
C42         C  0.51164501  0.85906393  0.09728848     0.01000
C43         C  0.54961235  0.88524275  0.85113726     0.01000
C44         C  0.50954074  0.90556302  0.84195879     0.01000
C45         C  0.47003503  0.88701328  0.85822460     0.01000
C46         C  0.47023278  0.85024171  0.88774548     0.01000
C47         C  0.51093835  0.84208993  0.90908603     0.01000
C48         C  0.55003173  0.85792929  0.88877333     0.01000
C49         C  0.12041591  0.45010909  0.83588744     0.01000
C50         C  0.09470320  0.48779141  0.83479151     0.01000
C51         C  0.11440386  0.52734986  0.84489219     0.01000
C52         C  0.15158017  0.53008402  0.87174401     0.01000
C53         C  0.17056417  0.49003646  0.88718913     0.01000
C54         C  0.15713868  0.45045663  0.86551158     0.01000
C55         C  0.11819676  0.46532917  0.10957773     0.01000
C56         C  0.15484435  0.46359951  0.08145035     0.01000
C57         C  0.17587771  0.50255454  0.06561506     0.01000
C58         C  0.16580618  0.54140782  0.08984710     0.01000
C59         C  0.12443498  0.54210642  0.11267991     0.01000
C60         C  0.09922397  0.50464455  0.11901563     0.01000
C61         C  0.85566856  0.45299283  0.13211177     0.01000
C62         C  0.89308186  0.45817970  0.15840757     0.01000
C63         C  0.91327198  0.49993683  0.15765291     0.01000
C64         C  0.88794996  0.53676384  0.14646468     0.01000
C65         C  0.84482978  0.53157493  0.13017975     0.01000
C66         C  0.83494136  0.48979045  0.11340500     0.01000
C67         C  0.88892253  0.52924759  0.87145470     0.01000
C68         C  0.90481062  0.48910519  0.85721863     0.01000
C69         C  0.87967905  0.45166934  0.86838795     0.01000
C70         C  0.84517301  0.45214149  0.90007666     0.01000
C71         C  0.84163240  0.49028491  0.92496984     0.01000
C72         C  0.85862789  0.52987478  0.90691934     0.01000
O73         O  0.11155026  0.94010561  0.81832720    -0.81400
O74         O  0.18391245  0.04468986  0.88436723    -0.81400
O75         O  0.21704127  0.90118982  0.84875012    -0.81400
O76         O  0.14184343  0.07516693  0.79440024    -0.81400
O77         O  0.18665938  0.94747281  0.89385868    -0.81500
O78         O  0.09960974  0.02441503  0.81580516    -0.81400
O79         O  0.21054492  0.08998626  0.83439055    -0.81400
O80         O  0.15809550  0.89603552  0.78954696    -0.81400
C81         C  0.12128817  0.90259687  0.80781497     1.08300
C82         C  0.19726035  0.08283775  0.87354593     1.08200
C83         C  0.19809925  0.90911761  0.88414012     1.08300
C84         C  0.10460122  0.06292867  0.80596088     1.08200
O85         O  0.15211114  0.03071180  0.73081418    -0.81400
O86         O  0.27355291  0.95468974  0.86307830    -0.81500
O87         O  0.22044887  0.95112958  0.73176474    -0.81400
O88         O  0.26405622  0.03602846  0.77583521    -0.81400
O89         O  0.26601055  0.03848304  0.84632704    -0.81400
O90         O  0.15136902  0.94661477  0.73276867    -0.81400
O91         O  0.20001739  0.08474516  0.73528967    -0.81400
O92         O  0.27699220  0.94947340  0.79331428    -0.81400
Co93       Co  0.13293716  0.98595747  0.77877703     1.51500
Co94       Co  0.22319688  0.99575470  0.86910519     1.51700
Co95       Co  0.21652105  0.92961627  0.79134183     1.51600
Co96       Co  0.20112412  0.04778967  0.78455207     1.51500
O97         O  0.19186995  0.98850698  0.81142851    -1.43300
C98         C  0.17284868  0.06290964  0.71308331     1.08200
C99         C  0.29585118  0.94819967  0.82901870     1.08300
C100        C  0.18624534  0.94957193  0.71168844     1.08200
C101        C  0.28551896  0.04054585  0.81025293     1.08200
O102        O  0.03201993  0.08226275  0.78366432    -0.81400
O103        O  0.95817236  0.18039506  0.90413728    -0.81400
O104        O  0.09288922  0.20811594  0.84511181    -0.81400
O105        O  0.90942664  0.14980514  0.79551663    -0.81400
O106        O  0.04587333  0.17944028  0.88986138    -0.81500
O107        O  0.95762084  0.10959991  0.82854522    -0.81400
O108        O  0.90780951  0.20487705  0.85968224    -0.81400
O109        O  0.07478667  0.13295999  0.81052901    -0.81400
C110        C  0.06780872  0.09321702  0.80109422     1.08300
C111        C  0.91880603  0.18808849  0.89633020     1.08200
C112        C  0.08284165  0.19438901  0.88308968     1.08300
C113        C  0.91919628  0.11553039  0.81500116     1.08200
O114        O  0.96571309  0.13636077  0.73904193    -0.81400
O115        O  0.04164084  0.26819553  0.85096893    -0.81500
O116        O  0.10262267  0.19578495  0.75127353    -0.81400
O117        O  0.95034105  0.26921280  0.80122782    -0.81400
O118        O  0.95739132  0.26423598  0.87118555    -0.81400
O119        O  0.04288794  0.15918388  0.73909333    -0.81400
O120        O  0.95332097  0.20601053  0.73695226    -0.81400
O121        O  0.04604911  0.25617942  0.78046131    -0.81400
Co122      Co  0.00436559  0.13667889  0.79177016     1.51500
Co123      Co  0.00129866  0.22026610  0.87641587     1.51700
Co124      Co  0.05504951  0.19524882  0.79329227     1.51600
Co125      Co  0.93433437  0.20785385  0.79863018     1.51500
O126        O  0.99418648  0.19272103  0.81813900    -1.43300
C127        C  0.95421793  0.17001407  0.71783435     1.08200
C128        C  0.05056300  0.28126399  0.81199362     1.08300
C129        C  0.07837716  0.17641521  0.72441085     1.08200
C130        C  0.94903041  0.28614424  0.83810602     1.08200
O131        O  0.04939486  0.88421167  0.17059651    -0.81400
O132        O  0.95610455  0.82150588  0.10592282    -0.81400
O133        O  0.09618799  0.78625529  0.13828211    -0.81400
O134        O  0.91415571  0.84011754  0.20990311    -0.81400
O135        O  0.05075992  0.82183663  0.09732078    -0.81500
O136        O  0.95878478  0.88291229  0.17474576    -0.81400
O137        O  0.91261179  0.78387350  0.14913774    -0.81400
O138        O  0.09880247  0.84189639  0.19813549    -0.81400
C139        C  0.08810654  0.87794877  0.18194263     1.08300
C140        C  0.91883005  0.80595062  0.11485429     1.08200
C141        C  0.08860997  0.80748134  0.10408568     1.08300
C142        C  0.92122374  0.87536053  0.18914340     1.08200
O143        O  0.96552384  0.84716428  0.26606170    -0.81400
O144        O  0.04519114  0.73273552  0.12151136    -0.81500
O145        O  0.05811488  0.78192445  0.25876037    -0.81400
O146        O  0.96373052  0.72316951  0.19879408    -0.81400
O147        O  0.96292266  0.73113680  0.12846704    -0.81400
O148        O  0.05059772  0.85194099  0.25743511    -0.81400
O149        O  0.96582382  0.77798576  0.26436076    -0.81400
O150        O  0.05293727  0.72218777  0.19115158    -0.81400
Co151      Co  0.00566989  0.86250448  0.21310519     1.51500
Co152      Co  0.00367506  0.78115408  0.11809973     1.51700
Co153      Co  0.06999248  0.78341360  0.19663033     1.51600
Co154      Co  0.94491685  0.78209175  0.20478785     1.51500
O155        O  0.00640661  0.80271509  0.18264700    -1.43300
C156        C  0.95795207  0.81098603  0.28528432     1.08200
C157        C  0.05353677  0.70775892  0.15285378     1.08300
C158        C  0.06402041  0.81811589  0.27562044     1.08200
C159        C  0.96081477  0.70692089  0.16199256     1.08200
O160        O  0.22020477  0.84961746  0.09178474    -0.81400
O161        O  0.14806162  0.79414095  0.92605836    -0.81400
O162        O  0.18639813  0.88061759  0.95395676    -0.81400
O163        O  0.12046939  0.81597902  0.03238391    -0.81400
O164        O  0.21388796  0.83704475  0.90618145    -0.81500
O165        O  0.15910347  0.78884723  0.08547270    -0.81400
O166        O  0.09792437  0.76069380  0.96685662    -0.81400
O167        O  0.19231459  0.89069519  0.04089560    -0.81400
C168        C  0.20235156  0.88457173  0.07996759     1.08300
C169        C  0.10931106  0.78063605  0.93195461     1.08200
C170        C  0.19702712  0.87332499  0.91558048     1.08300
C171        C  0.12461970  0.80663595  0.07218533     1.08200
O172        O  0.22251048  0.73197706  0.04484974    -0.81400
O173        O  0.27375882  0.78008729  0.95144973    -0.81500
O174        O  0.28055148  0.86136840  0.03775562    -0.81400
O175        O  0.17573934  0.72362279  0.95725580    -0.81400
O176        O  0.21121017  0.74188145  0.89754983    -0.81400
O177        O  0.28225757  0.79223814  0.05138766    -0.81400
O178        O  0.15264145  0.72632271  0.03705527    -0.81400
O179        O  0.27695739  0.85132598  0.95127429    -0.81400
Co180      Co  0.22068682  0.79071480  0.06478960     1.51500
Co181      Co  0.21069104  0.78334480  0.94469914     1.51700
Co182      Co  0.23145216  0.86810818  0.99602984     1.51600
Co183      Co  0.15133647  0.77615564  0.99286837     1.51500
O184        O  0.20658992  0.80832965  0.00382895    -1.43300
C185        C  0.18875396  0.70984199  0.04787512     1.08200
C186        C  0.29446980  0.81499594  0.94442407     1.08300
C187        C  0.30128786  0.82786440  0.04845954     1.08200
C188        C  0.19176186  0.71264724  0.92010308     1.08200
O189        O  0.09598236  0.15391349  0.20366319    -0.81400
O190        O  0.91736461  0.22021961  0.15376732    -0.81400
O191        O  0.97226692  0.09213363  0.22017155    -0.81400
O192        O  0.04958545  0.18771130  0.09646740    -0.81400
O193        O  0.93220482  0.14316101  0.18989674    -0.81500
O194        O  0.10126004  0.21057546  0.14001837    -0.81400
O195        O  0.96304462  0.19130569  0.10949326    -0.81400
O196        O  0.04519647  0.11621987  0.17151421    -0.81400
C197        C  0.08387668  0.11996464  0.18490480     1.08300
C198        C  0.92719935  0.20778365  0.11564223     1.08200
C199        C  0.93703475  0.10382916  0.20255217     1.08300
C200        C  0.08921585  0.19361234  0.10436817     1.08200
O201        O  0.06569621  0.27687902  0.19598701    -0.81400
O202        O  0.90641110  0.20438158  0.24837672    -0.81500
O203        O  0.04088776  0.14424383  0.26135257    -0.81400
O204        O  0.97226991  0.27903051  0.14730562    -0.81400
O205        O  0.96579982  0.26522377  0.21822259    -0.81400
O206        O  0.05759846  0.21334590  0.26188647    -0.81400
O207        O  0.05665833  0.27306380  0.12587864    -0.81400
O208        O  0.96500495  0.16748029  0.26195232    -0.81400
Co209      Co  0.07598984  0.21407460  0.20026282     1.51500
Co210      Co  0.95418242  0.20477119  0.20622849     1.51700
Co211      Co  0.00156200  0.14542758  0.20894431     1.51600
Co212      Co  0.00980226  0.23002560  0.12258376     1.51500
O213        O  0.01499820  0.20176410  0.18154587    -1.43300
C214        C  0.06682650  0.29430667  0.15865515     1.08200
C215        C  0.92922712  0.18353159  0.27561952     1.08300
C216        C  0.05482224  0.17733988  0.28163941     1.08200
C217        C  0.96346163  0.29108716  0.18634095     1.08200
O218        O  0.15508469  0.90678063  0.20502344    -0.81400
O219        O  0.20362734  0.08971003  0.14863285    -0.81400
O220        O  0.10386274  0.04605079  0.17644106    -0.81400
O221        O  0.19776338  0.95843646  0.10021961    -0.81400
O222        O  0.15136773  0.09201075  0.20504015    -0.81500
O223        O  0.20660498  0.91142107  0.15016773    -0.81400
O224        O  0.19235620  0.04072352  0.10219393    -0.81400
O225        O  0.10707252  0.95215732  0.17612858    -0.81400
C226        C  0.11890378  0.91401681  0.18597450     1.08300
C227        C  0.19489763  0.07939857  0.11084750     1.08200
C228        C  0.11484874  0.08420137  0.18678971     1.08300
C229        C  0.20007259  0.91989842  0.11131732     1.08200
O230        O  0.25612178  0.90694679  0.21563579    -0.81400
O231        O  0.20253854  0.04098324  0.26654763    -0.81500
O232        O  0.13354013  0.95531655  0.26361657    -0.81400
O233        O  0.26439390  0.04678731  0.16989079    -0.81400
O234        O  0.25196744  0.09831779  0.21710316    -0.81400
O235        O  0.20401756  0.95920587  0.26623480    -0.81400
O236        O  0.26957074  0.95823739  0.16584362    -0.81400
O237        O  0.13175482  0.04203521  0.26487325    -0.81400
Co238      Co  0.20836913  0.94520349  0.20493843     1.51500
Co239      Co  0.20582626  0.05687202  0.20495655     1.51700
Co240      Co  0.12167605  0.99900143  0.21679972     1.51600
Co241      Co  0.22694539  0.00126153  0.13766392     1.51500
O242        O  0.18081658  0.00009755  0.18676203    -1.43300
C243        C  0.28287857  0.92649223  0.18973180     1.08200
C244        C  0.16689987  0.04880939  0.28483759     1.08300
C245        C  0.16851650  0.94752489  0.28333362     1.08200
C246        C  0.27909661  0.07782457  0.19352699     1.08200
O247        O  0.18797769  0.10350862  0.03808544    -0.81400
O248        O  0.09696831  0.21751936  0.95507357    -0.81400
O249        O  0.15747328  0.20983408  0.08016640    -0.81400
O250        O  0.22221259  0.15288771  0.90025976    -0.81400
O251        O  0.11784215  0.17508122  0.03266882    -0.81500
O252        O  0.19081470  0.10859338  0.94650125    -0.81400
O253        O  0.15089459  0.19115585  0.91531681    -0.81400
O254        O  0.21394822  0.14839525  0.08737543    -0.81400
C255        C  0.19631668  0.11261775  0.07717028     1.08300
C256        C  0.11102113  0.20098108  0.91999009     1.08200
C257        C  0.12298399  0.19029163  0.07063922     1.08300
C258        C  0.20280638  0.11683057  0.90784075     1.08200
O259        O  0.27916603  0.14540549  0.95552875    -0.81400
O260        O  0.14558021  0.26291579  0.02096777    -0.81500
O261        O  0.27893481  0.20264841  0.04550278    -0.81400
O262        O  0.21687946  0.24592384  0.89059736    -0.81400
O263        O  0.17376829  0.25995966  0.94641371    -0.81400
O264        O  0.27493533  0.13237482  0.04006721    -0.81400
O265        O  0.27309865  0.21599552  0.95257802    -0.81400
O266        O  0.21475089  0.26726312  0.03711359    -0.81400
Co267      Co  0.23030245  0.12500706  0.99471480     1.51500
Co268      Co  0.14876930  0.20915967  0.98553346     1.51700
Co269      Co  0.21685445  0.20657153  0.05841172     1.51600
Co270      Co  0.21219979  0.20582513  0.93859614     1.51500
O271        O  0.20417107  0.18353849  0.99914823    -1.43300
C272        C  0.29608506  0.18297900  0.94975381     1.08200
C273        C  0.17799474  0.28509700  0.03336344     1.08300
C274        C  0.29551616  0.16602874  0.05059639     1.08200
C275        C  0.19436811  0.27263294  0.91182606     1.08200
O276        O  0.86518573  0.08427702  0.22151228    -0.81400
O277        O  0.79224824  0.91433349  0.14731234    -0.81400
O278        O  0.89535836  0.94760522  0.17572926    -0.81400
O279        O  0.83207165  0.05309119  0.12291975    -0.81400
O280        O  0.85155668  0.90117180  0.20732764    -0.81500
O281        O  0.80135991  0.09671354  0.16845118    -0.81400
O282        O  0.82592653  0.96481505  0.10949853    -0.81400
O283        O  0.90202732  0.03841250  0.18251903    -0.81400
C284        C  0.89926077  0.07459697  0.20025705     1.08300
C285        C  0.80930379  0.92778197  0.11170447     1.08200
C286        C  0.88727407  0.90925363  0.18824388     1.08300
C287        C  0.81917048  0.09029832  0.13219063     1.08200
O288        O  0.73938482  0.04926241  0.22174930    -0.81400
O289        O  0.79924313  0.94471784  0.27259074    -0.81500
O290        O  0.87713135  0.02880572  0.27346145    -0.81400
O291        O  0.73725758  0.96689214  0.14298394    -0.81400
O292        O  0.73772383  0.95696255  0.21294704    -0.81400
O293        O  0.80713848  0.03443979  0.27985068    -0.81400
O294        O  0.74296248  0.04978025  0.15133866    -0.81400
O295        O  0.86904431  0.94724329  0.26607661    -0.81400
Co296      Co  0.80350393  0.06007406  0.22209663     1.51500
Co297      Co  0.79603274  0.93507166  0.20978537     1.51700
Co298      Co  0.88100508  0.99137556  0.22023287     1.51600
Co299      Co  0.78882346  0.00777280  0.13595455     1.51500
O300        O  0.81756313  0.99857577  0.19671551    -1.43300
C301        C  0.72127264  0.05572106  0.18549591     1.08200
C302        C  0.83582206  0.93968198  0.28905162     1.08300
C303        C  0.84406345  0.03696355  0.29638928     1.08200
C304        C  0.71780055  0.95564174  0.17796972     1.08200
O305        O  0.79579394  0.15824532  0.10512646    -0.81400
O306        O  0.84760442  0.19667719  0.91841363    -0.81400
O307        O  0.81156559  0.09228740  0.97395493    -0.81400
O308        O  0.91089704  0.23040328  0.04243499    -0.81400
O309        O  0.78577765  0.13302734  0.92128827    -0.81500
O310        O  0.86002054  0.19944109  0.08379522    -0.81400
O311        O  0.89177399  0.17699510  0.97092171    -0.81400
O312        O  0.82361489  0.11229902  0.05987031    -0.81400
C313        C  0.81477136  0.12272284  0.09808415     1.08300
C314        C  0.88459283  0.18482565  0.93068349     1.08200
C315        C  0.79897173  0.09648954  0.93532741     1.08300
C316        C  0.89857018  0.21351856  0.07865437     1.08200
O317        O  0.79463618  0.24962014  0.10784548    -0.81400
O318        O  0.72833148  0.19465900  0.96128432    -0.81500
O319        O  0.73410481  0.14289794  0.06205138    -0.81400
O320        O  0.85961027  0.26206242  0.96964920    -0.81400
O321        O  0.79009881  0.25739610  0.95593113    -0.81400
O322        O  0.73493656  0.21290516  0.05434249    -0.81400
O323        O  0.83165538  0.26517611  0.04735879    -0.81400
O324        O  0.72753596  0.12641764  0.97854369    -0.81400
Co325      Co  0.79787204  0.20852239  0.06243980     1.51500
Co326      Co  0.78833391  0.19514336  0.94314892     1.51700
Co327      Co  0.77733494  0.12167132  0.01828130     1.51600
Co328      Co  0.85905963  0.21337394  0.01356649     1.51500
O329        O  0.80430228  0.18021061  0.00446296    -1.43300
C330        C  0.81395307  0.27706818  0.08340331     1.08200
C331        C  0.70890510  0.15907656  0.96338555     1.08300
C332        C  0.71470613  0.17854384  0.06377583     1.08200
C333        C  0.82505249  0.27888759  0.95568812     1.08200
O334        O  0.09785312  0.83181892  0.79390298    -0.81400
O335        O  0.91024381  0.78411107  0.84410605    -0.81400
O336        O  0.97807115  0.90034836  0.77396452    -0.81400
O337        O  0.04403773  0.80115563  0.89988360    -0.81400
O338        O  0.93385175  0.85003525  0.80237458    -0.81500
O339        O  0.09362351  0.77123422  0.85843370    -0.81400
O340        O  0.95728521  0.81104781  0.88914993    -0.81400
O341        O  0.04877744  0.87401701  0.82251594    -0.81400
C342        C  0.08778918  0.86758652  0.81011230     1.08300
C343        C  0.91886891  0.80134638  0.88034884     1.08200
C344        C  0.94243642  0.88960187  0.79253280     1.08300
C345        C  0.08107898  0.78594171  0.89494050     1.08200
O346        O  0.04853845  0.71516250  0.79973751    -0.81400
O347        O  0.90401572  0.78327414  0.75126187    -0.81500
O348        O  0.04206995  0.84520840  0.73546191    -0.81400
O349        O  0.95263961  0.72184465  0.86166497    -0.81400
O350        O  0.95449039  0.72163580  0.79035292    -0.81400
O351        O  0.05225183  0.77550518  0.73573839    -0.81400
O352        O  0.03737158  0.71510016  0.87002773    -0.81400
O353        O  0.96363519  0.82110480  0.73668533    -0.81400
Co354      Co  0.06932567  0.77369754  0.79750628     1.51500
Co355      Co  0.95036710  0.78560704  0.79239837     1.51700
Co356      Co  0.00215978  0.84576332  0.78723963     1.51600
Co357      Co  0.99838373  0.76519360  0.87724513     1.51500
O358        O  0.00950576  0.79014871  0.81712805    -1.43300
C359        C  0.04817010  0.69586864  0.83567966     1.08200
C360        C  0.92876828  0.80194759  0.72349433     1.08300
C361        C  0.05268003  0.81115782  0.71572015     1.08200
C362        C  0.94726090  0.70212444  0.82625681     1.08200
O363        O  0.89680114  0.04348800  0.82251920    -0.81400
O364        O  0.83164440  0.95501142  0.89253651    -0.81400
O365        O  0.81146614  0.06494308  0.86725649    -0.81400
O366        O  0.86980892  0.90636594  0.78692975    -0.81400
O367        O  0.77861699  0.02298141  0.91608133    -0.81500
O368        O  0.91310299  0.95788172  0.81052312    -0.81400
O369        O  0.80754056  0.90386192  0.84994450    -0.81400
O370        O  0.84919728  0.08852611  0.79798685    -0.81400
C371        C  0.88635583  0.08132916  0.81405979     1.08300
C372        C  0.82159041  0.91576541  0.88675109     1.08200
C373        C  0.79663042  0.05898247  0.90585961     1.08300
C374        C  0.90689721  0.91960512  0.79855399     1.08200
O375        O  0.87932905  0.96276288  0.72711345    -0.81400
O376        O  0.74071895  0.03075593  0.83674301    -0.81500
O377        O  0.79026900  0.04235298  0.74023157    -0.81400
O378        O  0.74812347  0.94233060  0.78878170    -0.81400
O379        O  0.74318778  0.95203892  0.85896698    -0.81400
O380        O  0.86109679  0.04685367  0.73238430    -0.81400
O381        O  0.81051622  0.94584392  0.72803312    -0.81400
O382        O  0.75681460  0.09336496  0.80618078    -0.81400
Co383      Co  0.88417204  0.00264235  0.77634135     1.51500
Co384      Co  0.79321201  0.99635943  0.86159874     1.51700
Co385      Co  0.79827618  0.04750905  0.80386617     1.51600
Co386      Co  0.80935543  0.92859774  0.78910494     1.51500
O387        O  0.82565728  0.98922217  0.80529181    -1.43300
C388        C  0.84635642  0.94788065  0.70866636     1.08200
C389        C  0.72883975  0.06845793  0.82420844     1.08300
C390        C  0.82312266  0.05207733  0.71704495     1.08200
C391        C  0.72625783  0.93991800  0.82316374     1.08200
O392        O  0.78731312  0.91473704  0.03761809    -0.81400
O393        O  0.89659722  0.81073983  0.95329827    -0.81400
O394        O  0.84723474  0.78924670  0.09298380    -0.81400
O395        O  0.79505095  0.85001930  0.91387887    -0.81400
O396        O  0.89225977  0.81540263  0.04401455    -0.81500
O397        O  0.83132994  0.88865825  0.96138115    -0.81400
O398        O  0.84948747  0.78556516  0.90583708    -0.81400
O399        O  0.81329756  0.86101480  0.07751426    -0.81400
C400        C  0.80412835  0.90099538  0.07287090     1.08300
C401        C  0.88624125  0.80149451  0.91461249     1.08200
C402        C  0.88409273  0.80545380  0.08295281     1.08300
C403        C  0.81763023  0.88321299  0.92278002     1.08200
O404        O  0.74170921  0.86474687  0.97209851    -0.81400
O405        O  0.85220666  0.72750882  0.04555483    -0.81500
O406        O  0.75562592  0.79902991  0.10654659    -0.81400
O407        O  0.79225609  0.72705927  0.95087819    -0.81400
O408        O  0.86276406  0.72640200  0.95856480    -0.81400
O409        O  0.74311613  0.83988776  0.04898023    -0.81400
O410        O  0.73557102  0.79522267  0.96219760    -0.81400
O411        O  0.78180938  0.73847668  0.04811099    -0.81400
Co412      Co  0.79488219  0.86095899  0.00887451     1.51500
Co413      Co  0.87380321  0.77294629  0.00068522     1.51700
Co414      Co  0.79437816  0.79963293  0.05688452     1.51600
Co415      Co  0.79325177  0.78953502  0.93717315     1.51500
O416        O  0.81732491  0.80309250  0.99591163    -1.43300
C417        C  0.71887963  0.83198408  0.96195950     1.08200
C418        C  0.81359785  0.71423858  0.05462489     1.08300
C419        C  0.72939809  0.82142443  0.08442008     1.08200
C420        C  0.82772756  0.70721554  0.94978840     1.08200
C421        C  0.90773129  0.57085245  0.85415849    -0.07400
C422        C  0.88566481  0.59428981  0.82174509    -0.18500
C423        C  0.89876188  0.63647422  0.80928582     0.09800
C424        C  0.93412781  0.65601972  0.83009554    -0.07300
C425        C  0.95527319  0.63241660  0.86192992    -0.18500
C426        C  0.94411208  0.59036230  0.87298313     0.09800
S427        S  0.86695940  0.66507873  0.77024843    -0.33500
S428        S  0.97779531  0.56570465  0.91281655    -0.33500
H429        H  0.95825419  0.52617838  0.91572648     0.27900
H430        H  0.86752971  0.70398023  0.79290730     0.27900
H431        H  0.85720052  0.58024505  0.80724703     0.18400
H432        H  0.97993373  0.64807449  0.88018355     0.18400
C433        C  0.84540155  0.57278029  0.92426970    -0.07400
C434        C  0.81412034  0.59570875  0.90071821    -0.18500
C435        C  0.80688234  0.63978416  0.90780810     0.09800
C436        C  0.83067443  0.66109320  0.93991919    -0.07300
C437        C  0.86064164  0.63817208  0.96391593    -0.18500
C438        C  0.86821800  0.59509997  0.95705593     0.09800
S439        S  0.77019688  0.66911652  0.87376554    -0.33500
S440        S  0.90870618  0.57365104  0.99172695    -0.33500
H441        H  0.91429073  0.53973833  0.96556541     0.27900
H442        H  0.75496338  0.63358157  0.85050846     0.27900
H443        H  0.79727285  0.57959309  0.87489265     0.18400
H444        H  0.87910924  0.65449092  0.98856622     0.18400
C445        C  0.89813047  0.40998796  0.85766109    -0.07400
C446        C  0.91553106  0.38670076  0.89209312    -0.18500
C447        C  0.93702527  0.34909016  0.88554648     0.09800
C448        C  0.93420843  0.32979903  0.84440339    -0.07300
C449        C  0.91343811  0.35135436  0.81032444    -0.18500
C450        C  0.89742689  0.39249745  0.81592308     0.09800
S451        S  0.96751824  0.32798735  0.93087691    -0.33500
S452        S  0.87323462  0.41882538  0.77000253    -0.33500
H453        H  0.84447273  0.44430189  0.79356972     0.27900
H454        H  0.97243659  0.36711356  0.95277394     0.27900
H455        H  0.91319981  0.39862951  0.92451412     0.18400
H456        H  0.90978801  0.33621622  0.77914871     0.18400
C457        C  0.82040280  0.41000385  0.91162742    -0.07400
C458        C  0.81656815  0.37681835  0.88119230    -0.18500
C459        C  0.82031264  0.33365222  0.89469279     0.09800
C460        C  0.82464406  0.32377380  0.93938837    -0.07300
C461        C  0.81848128  0.35690143  0.96911714    -0.18500
C462        C  0.80702271  0.39782677  0.95393796     0.09800
S463        S  0.82223621  0.29319676  0.85367515    -0.33500
S464        S  0.75136917  0.40763260  0.96775630    -0.33500
H465        H  0.74349203  0.43525581  0.93223589     0.27900
H466        H  0.85381106  0.26898828  0.87478810     0.27900
H467        H  0.81653707  0.38443346  0.84691947     0.18400
H468        H  0.81227964  0.34845365  0.00278475     0.18400
C469        C  0.91059068  0.57991766  0.14827540    -0.07400
C470        C  0.93327532  0.58992824  0.18620075    -0.18500
C471        C  0.95219572  0.63031676  0.19195829     0.09800
C472        C  0.95177536  0.66066226  0.15731717    -0.07300
C473        C  0.93499164  0.64832069  0.11759199    -0.18500
C474        C  0.91006113  0.61144094  0.11453775     0.09800
S475        S  0.97298945  0.64083733  0.24519774    -0.33500
S476        S  0.86716280  0.61812624  0.07607038    -0.33500
H477        H  0.78127238  0.62371216  0.11164898     0.27900
H478        H  0.00719199  0.66728623  0.23126617     0.27900
H479        H  0.93293160  0.56733287  0.21315035     0.18400
H480        H  0.93385591  0.67130146  0.09090633     0.18400
C481        C  0.81737024  0.57179845  0.12135948    -0.07400
C482        C  0.79581018  0.57915842  0.07079882    -0.18500
C483        C  0.79036092  0.62873761  0.04913631     0.09800
C484        C  0.80678438  0.67219168  0.07704795    -0.07300
C485        C  0.82607010  0.66614255  0.12778291    -0.18500
C486        C  0.82980181  0.61668284  0.15098423     0.09800
S487        S  0.75557507  0.63345810  0.00326885    -0.33500
S488        S  0.83645985  0.61390898  0.20875748    -0.33500
H489        H  0.82816762  0.56947372  0.21160821     0.27900
H490        H  0.74455254  0.67628562  0.01073153     0.27900
H491        H  0.78286283  0.55461894  0.05193175     0.18400
H492        H  0.83553594  0.69416456  0.14585162     0.18400
C493        C  0.91328429  0.41802958  0.17862866    -0.07400
C494        C  0.95745775  0.40849370  0.17331509    -0.18500
C495        C  0.97442228  0.37041333  0.18934348     0.09800
C496        C  0.94703351  0.33497615  0.19382531    -0.07300
C497        C  0.90322059  0.34289471  0.20204643    -0.18500
C498        C  0.88758973  0.38534175  0.19958320     0.09800
S499        S  0.02130730  0.37490097  0.22297486    -0.33500
S500        S  0.83580755  0.39573974  0.22411654    -0.33500
H501        H  0.84118816  0.44060053  0.22555412     0.27900
H502        H  0.01564035  0.33509861  0.24454321     0.27900
H503        H  0.97950041  0.42830261  0.15502539     0.18400
H504        H  0.88167423  0.31658502  0.21114610     0.18400
C505        C  0.84389644  0.40889518  0.11592023    -0.07400
C506        C  0.80278437  0.39179101  0.12661575    -0.18500
C507        C  0.79132823  0.34897151  0.11742349     0.09800
C508        C  0.82104065  0.32265679  0.09557783    -0.07300
C509        C  0.86095067  0.34046636  0.08308741    -0.18500
C510        C  0.87300399  0.38231568  0.09275538     0.09800
S511        S  0.73854238  0.33046094  0.13398386    -0.33500
S512        S  0.92658779  0.39626458  0.07356122    -0.33500
H513        H  0.93273311  0.43622452  0.09169372     0.27900
H514        H  0.73242305  0.30387913  0.09804911     0.27900
H515        H  0.78003346  0.41141504  0.14407384     0.18400
H516        H  0.88411960  0.32084813  0.06606360     0.18400
C517        C  0.83705000  0.48603579  0.97346165    -0.07400
C518        C  0.79681067  0.48953359  0.99490104    -0.18500
C519        C  0.79326491  0.48255134  0.04044435     0.09800
C520        C  0.83120753  0.48654330  0.06529631    -0.07300
C521        C  0.87050256  0.48487432  0.04359808    -0.18500
C522        C  0.87331769  0.47753398  0.99986506     0.09800
S523        S  0.74018874  0.47781104  0.06479559    -0.33500
S524        S  0.92553231  0.45970648  0.98251949    -0.33500
H525        H  0.91843876  0.47261336  0.94079827     0.27900
H526        H  0.75325442  0.47576997  0.10816614     0.27900
H527        H  0.76810505  0.49537403  0.97613863     0.18400
H528        H  0.89985579  0.48763376  0.06147791     0.18400
C529        C  0.06621166  0.66304183  0.14307966    -0.07400
C530        C  0.07813324  0.63526502  0.17709528    -0.18500
C531        C  0.09573227  0.59496010  0.16883431     0.09800
C532        C  0.10341045  0.58284293  0.12528856    -0.07300
C533        C  0.09095988  0.61006233  0.09168047    -0.18500
C534        C  0.07078882  0.64879725  0.09962918     0.09800
S535        S  0.11203719  0.56338569  0.21531419    -0.31100
S536        S  0.05130443  0.67801237  0.05274801    -0.33500
H537        H  0.07963640  0.66003353  0.02227681     0.27900
H538        H  0.14099577  0.53644267  0.19386481     0.27900
H539        H  0.07561609  0.64560939  0.21035143     0.18400
H540        H  0.09725402  0.60063907  0.05863836     0.18400
C541        C  0.19553473  0.58133325  0.09342908    -0.07400
C542        C  0.18692709  0.61353248  0.12389645    -0.18500
C543        C  0.18384444  0.65648568  0.10977216     0.09800
C544        C  0.19346465  0.66628084  0.06589718    -0.07300
C545        C  0.22011930  0.63704156  0.04417922    -0.18500
C546        C  0.22505404  0.59540415  0.06156683     0.09800
S547        S  0.17053463  0.69681868  0.14888276    -0.33500
S548        S  0.27502748  0.56785659  0.05269975    -0.33500
H549        H  0.26714675  0.53682786  0.08552706     0.27900
H550        H  0.19766780  0.72891059  0.13079375     0.27900
H551        H  0.17817203  0.60495083  0.15683379     0.18400
H552        H  0.23895229  0.64732842  0.01606569     0.18400
C553        C  0.07863840  0.33943751  0.15089550    -0.07400
C554        C  0.05404711  0.36170892  0.12024958    -0.18500
C555        C  0.06411854  0.40360548  0.10786246     0.09800
C556        C  0.09923275  0.42479459  0.12749932    -0.07300
C557        C  0.12218426  0.40350383  0.16038991    -0.18500
C558        C  0.11308585  0.36057065  0.17139977     0.09800
S559        S  0.03243644  0.42554074  0.06447265    -0.33500
S560        S  0.14747939  0.33400834  0.20981934    -0.33500
H561        H  0.14852032  0.29488042  0.18756854     0.27900
H562        H  0.06264535  0.45592238  0.04973170     0.27900
H563        H  0.02705073  0.34578255  0.10483074     0.18400
H564        H  0.14926931  0.41956222  0.17540602     0.18400
C565        C  0.16600427  0.41963207  0.06591085    -0.07400
C566        C  0.13843720  0.40077499  0.03572749    -0.18500
C567        C  0.13788539  0.35654495  0.02953288     0.09800
C568        C  0.17267652  0.33138127  0.04448889    -0.07300
C569        C  0.20279422  0.35108666  0.07199211    -0.18500
C570        C  0.19777871  0.39371716  0.08550932     0.09800
S571        S  0.08784566  0.33467934  0.01034747    -0.33500
S572        S  0.23265535  0.41245765  0.12797332    -0.33500
H573        H  0.22707856  0.45665803  0.12128649     0.27900
H574        H  0.08281989  0.30566672  0.04538472     0.27900
H575        H  0.11414061  0.41993695  0.02023102     0.18400
H576        H  0.22888381  0.33241389  0.08535570     0.18400
C577        C  0.05182068  0.50715185  0.13156773    -0.07400
C578        C  0.03726714  0.49701693  0.17404495    -0.18500
C579        C  0.99296881  0.49853230  0.18567449     0.09800
C580        C  0.96183553  0.50512759  0.15275136    -0.07300
C581        C  0.97695569  0.51800416  0.11147643    -0.18500
C582        C  0.02082022  0.52051683  0.10091597     0.09800
S583        S  0.97866662  0.48821074  0.24174854    -0.33500
S584        S  0.03550950  0.53704064  0.04625399    -0.33500
H585        H  0.99586715  0.55547985  0.03510786     0.27900
H586        H  0.93366793  0.48942365  0.23753956     0.27900
H587        H  0.06049147  0.48770451  0.19828511     0.18400
H588        H  0.95391626  0.52599934  0.08675334     0.18400
C589        C  0.08984731  0.56666204  0.83719403    -0.07400
C590        C  0.06890611  0.58314447  0.87319447    -0.18500
C591        C  0.06026315  0.62658247  0.87578881     0.09800
C592        C  0.06214109  0.65128301  0.83723645    -0.07300
C593        C  0.07775224  0.63281696  0.79875113    -0.18500
C594        C  0.09360920  0.59125308  0.79886612     0.09800
S595        S  0.05091397  0.64986133  0.92884264    -0.33500
S596        S  0.11994984  0.57291511  0.75025366    -0.33500
H597        H  0.11880015  0.52885159  0.76022599     0.27900
H598        H  0.04167769  0.61191695  0.95213657     0.27900
H599        H  0.06435861  0.56248228  0.90105421     0.18400
H600        H  0.07990671  0.65146001  0.76889461     0.18400
C601        C  0.16489822  0.57595811  0.88617564    -0.07400
C602        C  0.18813392  0.60348161  0.85697836    -0.18500
C603        C  0.19875913  0.64705057  0.86667982     0.09800
C604        C  0.18524271  0.66556149  0.90644694    -0.07300
C605        C  0.16118761  0.63820454  0.93486058    -0.18500
C606        C  0.15023971  0.59518365  0.92543233     0.09800
S607        S  0.22908607  0.67725700  0.82651112    -0.33500
S608        S  0.11596222  0.56820351  0.96564834    -0.33500
H609        H  0.12136503  0.52639287  0.95151449     0.27900
H610        H  0.25988850  0.69182059  0.85629760     0.27900
H611        H  0.19838991  0.59072210  0.82611738     0.18400
H612        H  0.14935517  0.65070267  0.96525272     0.18400
C613        C  0.07017646  0.32481246  0.80409459    -0.07400
C614        C  0.11508131  0.33129919  0.80568301    -0.18500
C615        C  0.13246762  0.37344667  0.80392354     0.09800
C616        C  0.10511756  0.40867686  0.81238587    -0.07300
C617        C  0.06271736  0.40202865  0.79687929    -0.18500
C618        C  0.04596745  0.36041040  0.79069401     0.09800
S619        S  0.18479689  0.38131904  0.77913134    -0.33500
S620        S  0.99909237  0.35487415  0.75749319    -0.33500
H621        H  0.01021399  0.31524794  0.73961335     0.27900
H622        H  0.17992364  0.42567179  0.77153539     0.27900
H623        H  0.13637124  0.30396460  0.80579301     0.18400
H624        H  0.04345423  0.42813021  0.78564607     0.18400
C625        C  0.17266922  0.40711638  0.88050711    -0.07400
C626        C  0.14117201  0.38027921  0.89921915    -0.18500
C627        C  0.14710922  0.33657256  0.90463610     0.09800
C628        C  0.18807669  0.31843334  0.89820119    -0.07300
C629        C  0.22205531  0.34582874  0.88373694    -0.18500
C630        C  0.21470074  0.38999046  0.87421144     0.09800
S631        S  0.09968262  0.30381591  0.91328890    -0.33500
S632        S  0.25961868  0.42207134  0.85408954    -0.33500
H633        H  0.23574168  0.45609705  0.83671965     0.27900
H634        H  0.06833793  0.33602124  0.91073503     0.27900
H635        H  0.10968394  0.39271122  0.90480563     0.18400
H636        H  0.25409752  0.33292184  0.87961449     0.18400
C637        C  0.19760017  0.48985565  0.92939730    -0.07400
C638        C  0.20160591  0.45470490  0.95896043    -0.18500
C639        C  0.21325298  0.46220541  0.00224692     0.09800
C640        C  0.20062413  0.50122192  0.02136624    -0.07300
C641        C  0.20376868  0.53576502  0.99133365    -0.18500
C642        C  0.21275741  0.52838954  0.94720824     0.09800
S643        S  0.26172933  0.43613941  0.01958115    -0.33500
S644        S  0.25605231  0.55776134  0.92051706    -0.33500
H645        H  0.26028192  0.58873460  0.95304078     0.27900
H646        H  0.27128824  0.46586298  0.05209057     0.27900
H647        H  0.20155453  0.42183475  0.94979856     0.18400
H648        H  0.19514252  0.56773730  0.99891858     0.18400
C649        C  0.04561296  0.48575030  0.83687724    -0.07400
C650        C  0.01941240  0.50482989  0.80457921    -0.18500
C651        C  0.97354889  0.50437970  0.80778087     0.09800
C652        C  0.95260312  0.48443399  0.84404324    -0.07300
C653        C  0.97950525  0.46287179  0.87351429    -0.18500
C654        C  0.02420443  0.46565256  0.87228377     0.09800
S655        S  0.94417102  0.52757791  0.76341294    -0.33500
S656        S  0.05030264  0.44787024  0.92106163    -0.33500
H657        H  0.08474743  0.47678622  0.91791279     0.27900
H658        H  0.90392085  0.50916452  0.77442114     0.27900
H659        H  0.03474092  0.51994482  0.77656038     0.18400
H660        H  0.96634661  0.44757622  0.90173448     0.18400
C661        C  0.59306533  0.89764934  0.82898306    -0.07400
C662        C  0.60501489  0.94006718  0.81629918    -0.18500
C663        C  0.64778711  0.95106326  0.80589932     0.09800
C664        C  0.68085595  0.92405624  0.82013229    -0.07300
C665        C  0.67005073  0.88032724  0.82520270    -0.18500
C666        C  0.62634854  0.86687387  0.82389890     0.09800
S667        S  0.65766622  0.99780126  0.77199768    -0.33500
S668        S  0.61471757  0.81174688  0.81066711    -0.33500
H669        H  0.57160127  0.81885245  0.79893812     0.27900
H670        H  0.69249055  0.98075497  0.74878862     0.27900
H671        H  0.58308521  0.96585669  0.81407932     0.18400
H672        H  0.69536358  0.85673295  0.82739612     0.18400
C673        C  0.59189724  0.85168282  0.91138337    -0.07400
C674        C  0.60982035  0.81084672  0.91126352    -0.18500
C675        C  0.64925646  0.80253838  0.93052182     0.09800
C676        C  0.67401653  0.83704381  0.94719065    -0.07300
C677        C  0.65665405  0.87840729  0.94618612    -0.18500
C678        C  0.61574239  0.88585777  0.92950601     0.09800
S679        S  0.66478888  0.74698722  0.93312055    -0.33500
S680        S  0.59719601  0.94012005  0.93000123    -0.33500
H681        H  0.56385009  0.93173130  0.95938630     0.27900
H682        H  0.66657411  0.74707354  0.97871756     0.27900
H683        H  0.59286558  0.78490321  0.89556062     0.18400
H684        H  0.67498116  0.90539501  0.95847824     0.18400
C685        C  0.42875277  0.91075321  0.84824801    -0.07400
C686        C  0.41141195  0.90870292  0.80638688    -0.18500
C687        C  0.36898265  0.92207747  0.79792777     0.09800
C688        C  0.34320033  0.93912905  0.83193036    -0.07300
C689        C  0.36291182  0.94584319  0.87185966    -0.18500
C690        C  0.40502478  0.93317336  0.87986036     0.09800
S691        S  0.34880964  0.91178136  0.74461230    -0.33500
S692        S  0.42600949  0.94728626  0.93120494    -0.33500
H693        H  0.42371371  0.90417055  0.94454270     0.27900
H694        H  0.33685278  0.95471503  0.73744934     0.27900
H695        H  0.42967985  0.89316775  0.78106498     0.18400
H696        H  0.34479510  0.95959444  0.89819948     0.18400
C697        C  0.42662408  0.82715050  0.89962449    -0.07400
C698        C  0.39218448  0.82862486  0.86974648    -0.18500
C699        C  0.34871714  0.82443949  0.88295661     0.09800
C700        C  0.33888097  0.81432077  0.92649315    -0.07300
C701        C  0.37247960  0.80250494  0.95345491    -0.18500
C702        C  0.41572805  0.80587495  0.93964107     0.09800
S703        S  0.30726816  0.83189583  0.84308311    -0.33500
S704        S  0.44755044  0.76408413  0.96203724    -0.33500
H705        H  0.43480335  0.77163547  0.00522291     0.27900
H706        H  0.27856049  0.80121371  0.86128764     0.27900
H707        H  0.39900321  0.83383638  0.83578095     0.18400
H708        H  0.36457329  0.78746831  0.98440823     0.18400
C709        C  0.58428434  0.91878028  0.17130392    -0.07400
C710        C  0.60971830  0.90004071  0.20374703    -0.18500
C711        C  0.65342060  0.91172290  0.20790556     0.09800
C712        C  0.67237429  0.94084582  0.17736236    -0.07300
C713        C  0.64683503  0.95738821  0.14470379    -0.18500
C714        C  0.60276433  0.95084547  0.14422674     0.09800
S715        S  0.68413961  0.88404079  0.24860906    -0.33500
S716        S  0.57312078  0.98473190  0.10782063    -0.33500
H717        H  0.53257430  0.96821550  0.11659226     0.27900
H718        H  0.71958527  0.87666250  0.22096668     0.27900
H719        H  0.59618412  0.87454340  0.22408485     0.18400
H720        H  0.66150025  0.97502196  0.11864736     0.18400
C721        C  0.59368468  0.85215656  0.10935462    -0.07400
C722        C  0.61417811  0.82173118  0.13659125    -0.18500
C723        C  0.65838355  0.81099567  0.13121227     0.09800
C724        C  0.68278579  0.82927452  0.09630955    -0.07300
C725        C  0.66157093  0.85815440  0.06893170    -0.18500
C726        C  0.61912404  0.87006067  0.07494777     0.09800
S727        S  0.68185070  0.77585804  0.17088338    -0.33500
S728        S  0.60347095  0.91096432  0.03770979    -0.33500
H729        H  0.56768967  0.91913516  0.06157341     0.27900
H730        H  0.71681902  0.80382443  0.17866507     0.27900
H731        H  0.59619405  0.80790823  0.16374738     0.18400
H732        H  0.67879583  0.87379523  0.04231974     0.18400
C733        C  0.32886599  0.91302559  0.18235697    -0.07400
C734        C  0.35339599  0.89122279  0.21379384    -0.18500
C735        C  0.39770203  0.88197169  0.20628785     0.09800
C736        C  0.41910778  0.89840513  0.16840975    -0.07300
C737        C  0.39461332  0.92243364  0.13911699    -0.18500
C738        C  0.35006614  0.92530041  0.14319432     0.09800
S739        S  0.42504233  0.85091696  0.24703752    -0.33500
S740        S  0.32159391  0.93886533  0.09448580    -0.33500
H741        H  0.28880613  0.90852958  0.10312401     0.27900
H742        H  0.45995777  0.83819128  0.22114402     0.27900
H743        H  0.33806544  0.88095475  0.24392651     0.18400
H744        H  0.41014388  0.93694895  0.11094988     0.18400
C745        C  0.43091118  0.84658073  0.09300194    -0.07400
C746        C  0.41335908  0.87182928  0.05968824    -0.18500
C747        C  0.37298020  0.86433815  0.04254337     0.09800
C748        C  0.34725604  0.83119292  0.06011683    -0.07300
C749        C  0.36533638  0.80280081  0.09085789    -0.18500
C750        C  0.40724866  0.80979618  0.10692553     0.09800
S751        S  0.35437702  0.89940272  0.99952429    -0.33500
S752        S  0.42781292  0.77152062  0.14573890    -0.33500
H753        H  0.47052439  0.78693510  0.14706460     0.27900
H754        H  0.37876630  0.93564850  0.01152308     0.27900
H755        H  0.42833426  0.90078258  0.04964308     0.18400
H756        H  0.34628999  0.77601870  0.10358231     0.18400
C757        C  0.51480781  0.85419961  0.04926082    -0.07400
C758        C  0.52966391  0.81578413  0.03162532    -0.18500
C759        C  0.53007260  0.80918189  0.98648376     0.09800
C760        C  0.51207759  0.84105891  0.95813449    -0.07300
C761        C  0.50117314  0.88002087  0.97637577    -0.18500
C762        C  0.50325465  0.88800343  0.02022428     0.09800
S763        S  0.54988021  0.75762750  0.96979099    -0.33500
S764        S  0.49479832  0.94411706  0.03408350    -0.33500
H765        H  0.48406508  0.93738786  0.07762428     0.27900
H766        H  0.53190854  0.75917614  0.92817885     0.27900
H767        H  0.54065135  0.79057100  0.05325693     0.18400
H768        H  0.49469707  0.90651428  0.95514960     0.18400
C769        C  0.59251219  0.10219761  0.83982348    -0.07400
C770        C  0.60920217  0.06501355  0.85876494    -0.18500
C771        C  0.65275081  0.05478355  0.85602945     0.09800
C772        C  0.68207464  0.08053195  0.83062155    -0.07300
C773        C  0.66519391  0.11725608  0.81007319    -0.18500
C774        C  0.62120513  0.12838961  0.81451129     0.09800
S775        S  0.66700784  0.00793748  0.88702031    -0.33500
S776        S  0.60407739  0.17639737  0.78670877    -0.33500
H777        H  0.55944579  0.16852093  0.78969666     0.27900
H778        H  0.70435874  0.02579794  0.90318925     0.27900
H779        H  0.58913501  0.04539030  0.87984795     0.18400
H780        H  0.68632339  0.13750871  0.79025467     0.18400
C781        C  0.66521639  0.15558811  0.94601264    -0.07400
C782        C  0.64816999  0.19215127  0.92514640    -0.18500
C783        C  0.60693986  0.19155237  0.90779884     0.09800
C784        C  0.58147650  0.15421970  0.91322021    -0.07300
C785        C  0.59712153  0.11942331  0.93688495    -0.18500
C786        C  0.63938663  0.11788459  0.95034837     0.09800
S787        S  0.58864217  0.23964042  0.88066501    -0.33500
S788        S  0.65517799  0.06701750  0.97468664    -0.33500
H789        H  0.69682566  0.06483533  0.95781416     0.27900
H790        H  0.54427414  0.23020116  0.88265259     0.27900
H791        H  0.66720613  0.22140885  0.92157443     0.18400
H792        H  0.57728225  0.09113101  0.94125261     0.18400
C793        C  0.33239779  0.04972913  0.81250021    -0.07400
C794        C  0.36464470  0.06326973  0.76890256    -0.18500
C795        C  0.41665504  0.08103907  0.77775521     0.09800
C796        C  0.43437168  0.08465867  0.83046221    -0.07300
C797        C  0.40290807  0.06832233  0.87134864    -0.18500
C798        C  0.35268065  0.05273513  0.86354527     0.09800
S799        S  0.44778021  0.10174169  0.73269265    -0.33500
S800        S  0.32160665  0.04339944  0.91287806    -0.33500
H801        H  0.35713280  0.04008733  0.94061923     0.27900
H802        H  0.48151616  0.11793395  0.75799055     0.27900
H803        H  0.35178461  0.06291780  0.73644660     0.18400
H804        H  0.41624463  0.06568776  0.90276655     0.18400
C805        C  0.41893283  0.16734569  0.88575129    -0.07400
C806        C  0.41522264  0.20112718  0.91650122    -0.18500
C807        C  0.37591427  0.20901166  0.93917727     0.09800
C808        C  0.33840850  0.18567702  0.92767897    -0.07300
C809        C  0.33995938  0.16097206  0.89134117    -0.18500
C810        C  0.37802890  0.15230713  0.87010167     0.09800
S811        S  0.37762009  0.24475304  0.98465402    -0.33500
S812        S  0.36508622  0.12375416  0.82228440    -0.33500
H813        H  0.39436457  0.03649553  0.81783480     0.27900
H814        H  0.33316692  0.25105187  0.98909718     0.27900
H815        H  0.44358632  0.21897782  0.92604853     0.18400
H816        H  0.31006452  0.14664464  0.87976970     0.18400
C817        C  0.50953221  0.95325850  0.83713596    -0.07400
C818        C  0.51200253  0.97499929  0.87597231    -0.18500
C819        C  0.51131278  0.01914700  0.87804031     0.09800
C820        C  0.51258717  0.04437907  0.83932205    -0.07300
C821        C  0.50950707  0.02276043  0.79950788    -0.18500
C822        C  0.50666704  0.97739815  0.79807580     0.09800
S823        S  0.50968757  0.03901953  0.93238379    -0.33500
S824        S  0.50337085  0.95235630  0.74603934    -0.33500
H825        H  0.52421501  0.91432064  0.75833593     0.27900
H826        H  0.48891379  0.07628658  0.92162994     0.27900
H827        H  0.51299612  0.95682358  0.90587062     0.18400
H828        H  0.50916665  0.04116082  0.76956303     0.18400
C829        C  0.58761843  0.09793463  0.17141766    -0.07400
C830        C  0.60856934  0.07333658  0.14070309    -0.18500
C831        C  0.65234889  0.06454757  0.14195619     0.09800
C832        C  0.67573262  0.07154367  0.18063044    -0.07300
C833        C  0.65505190  0.09579467  0.21304597    -0.18500
C834        C  0.61247629  0.11159221  0.20737649     0.09800
S835        S  0.67548265  0.04941617  0.09034548    -0.33500
S836        S  0.59295551  0.14975556  0.24625281    -0.33500
H837        H  0.55179156  0.15583016  0.22887369     0.27900
H838        H  0.70934176  0.07881212  0.09151307     0.27900
H839        H  0.59146165  0.06540844  0.11215723     0.18400
H840        H  0.67290413  0.10464519  0.24163774     0.18400
C841        C  0.58252966  0.15891317  0.10258261    -0.07400
C842        C  0.60804835  0.18859491  0.12549522    -0.18500
C843        C  0.65092149  0.19788689  0.11294031     0.09800
C844        C  0.66851566  0.17742199  0.07640706    -0.07300
C845        C  0.64269642  0.14827086  0.05421075    -0.18500
C846        C  0.60026078  0.13872083  0.06610160     0.09800
S847        S  0.68207700  0.23224493  0.14740574    -0.33500
S848        S  0.57237354  0.09750494  0.03571279    -0.33500
H849        H  0.54051616  0.08516704  0.06579465     0.27900
H850        H  0.72179054  0.21211424  0.14053150     0.27900
H851        H  0.59501585  0.20303081  0.15448329     0.18400
H852        H  0.65742008  0.12997386  0.02951619     0.18400
C853        C  0.42023459  0.09726923  0.18295540    -0.07400
C854        C  0.39626344  0.06659684  0.16047779    -0.18500
C855        C  0.35167360  0.06543465  0.15942620     0.09800
C856        C  0.32709638  0.08772909  0.19024970    -0.07300
C857        C  0.35037580  0.11551969  0.21801772    -0.18500
C858        C  0.39625436  0.12154899  0.21343963     0.09800
S859        S  0.32940055  0.03935790  0.11252965    -0.33500
S860        S  0.42275963  0.16005101  0.24737985    -0.33500
H861        H  0.46409243  0.14215932  0.24385628     0.27900
H862        H  0.29960676  0.07199357  0.10348729     0.27900
H863        H  0.41118194  0.04616216  0.13814055     0.18400
H864        H  0.33302274  0.13321558  0.24244255     0.18400
C865        C  0.33813051  0.16064430  0.07019829    -0.07400
C866        C  0.36040142  0.12319353  0.05993318    -0.18500
C867        C  0.39991875  0.11384023  0.07827169     0.09800
C868        C  0.41936564  0.14454540  0.10592277    -0.07300
C869        C  0.39727172  0.18200926  0.11643378    -0.18500
C870        C  0.35629405  0.18981005  0.09982141     0.09800
S871        S  0.42569549  0.06497495  0.06009742    -0.33500
S872        S  0.32832384  0.23615496  0.11935519    -0.33500
H873        H  0.28889993  0.21404621  0.12615294     0.27900
H874        H  0.46810754  0.07653278  0.06960236     0.27900
H875        H  0.34698943  0.10067487  0.03704286     0.18400
H876        H  0.41174674  0.20479285  0.13837676     0.18400
C877        C  0.50486062  0.04611469  0.18726582    -0.07400
C878        C  0.48094169  0.01961762  0.16030634    -0.18500
C879        C  0.46539238  0.98074708  0.17690154     0.09800
C880        C  0.49756676  0.95460492  0.19279020    -0.07300
C881        C  0.52778602  0.97684002  0.21949404    -0.18500
C882        C  0.52761981  0.02325499  0.22059719     0.09800
S883        S  0.42127446  0.98712377  0.21519749    -0.33500
S884        S  0.55209144  0.05031444  0.26523126    -0.33500
H885        H  0.56807399  0.01325512  0.28580294     0.27900
H886        H  0.43449938  0.95596855  0.24567766     0.27900
H887        H  0.47502661  0.02869902  0.12716565     0.18400
H888        H  0.54992614  0.95884474  0.23933175     0.18400
C889        C  0.49799479  0.16922976  0.05095926    -0.07400
C890        C  0.46286183  0.15634212  0.02626805    -0.18500
C891        C  0.46488617  0.14546472  0.98289058     0.09800
C892        C  0.49672292  0.16447528  0.95536295    -0.07300
C893        C  0.52576204  0.19238305  0.97797150    -0.18500
C894        C  0.52759218  0.19419819  0.02460597     0.09800
S895        S  0.41946074  0.11413050  0.96668721    -0.33500
S896        S  0.55970635  0.23722516  0.04617785    -0.33500
H897        H  0.53624501  0.23918984  0.08534719     0.27900
H898        H  0.43928030  0.07489351  0.97547486     0.27900
H899        H  0.43242582  0.17054272  0.03391674     0.18400
H900        H  0.54620241  0.21430426  0.95982958     0.18400
C901        C  0.91206616  0.82041435  0.58332653    -0.07400
C902        C  0.88789778  0.78763780  0.60504628    -0.18500
C903        C  0.89103011  0.78010990  0.65054205     0.09800
C904        C  0.92020643  0.80484656  0.67545119    -0.07300
C905        C  0.94604860  0.83471211  0.65308855    -0.18500
C906        C  0.94346007  0.84229877  0.60888846     0.09800
S907        S  0.85584339  0.74013517  0.67463486    -0.33500
S908        S  0.97825519  0.88543085  0.59169200    -0.33500
H909        H  0.01318990  0.87486809  0.61850755     0.27900
H910        H  0.83954148  0.76808634  0.70604834     0.27900
H911        H  0.86368881  0.77013061  0.58710551     0.18400
H912        H  0.96806992  0.85489059  0.67095709     0.18400
C913        C  0.85903204  0.89138253  0.58470703    -0.07400
C914        C  0.88822454  0.92306021  0.59780577    -0.18500
C915        C  0.88434070  0.94253759  0.63739665     0.09800
C916        C  0.85112246  0.92899685  0.66600597    -0.07300
C917        C  0.82376009  0.89462698  0.65467344    -0.18500
C918        C  0.82738677  0.87549009  0.61415941     0.09800
S919        S  0.92133953  0.98608704  0.64762388    -0.33500
S920        S  0.78973495  0.83294728  0.60161566    -0.33500
H921        H  0.79178692  0.83802968  0.55635382     0.27900
H922        H  0.88835195  0.01452591  0.65865039     0.27900
H923        H  0.91183919  0.93576934  0.57482947     0.18400
H924        H  0.79917289  0.88291499  0.67722087     0.18400
C925        C  0.84100022  0.92399143  0.33427269    -0.07400
C926        C  0.80454425  0.91364965  0.36017741    -0.18500
C927        C  0.80951459  0.89685407  0.40241331     0.09800
C928        C  0.85116196  0.89647311  0.42085666    -0.07300
C929        C  0.88651952  0.91100430  0.39639867    -0.18500
C930        C  0.88250744  0.91918403  0.35252375     0.09800
S931        S  0.76295135  0.87847690  0.43378567    -0.33500
S932        S  0.93209005  0.91579509  0.32173513    -0.33500
H933        H  0.91188290  0.89259509  0.28907856     0.27900
H934        H  0.73208063  0.88706401  0.40180380     0.27900
H935        H  0.77256549  0.91670891  0.34678968     0.18400
H936        H  0.91861121  0.90878547  0.40970199     0.18400
C937        C  0.90036575  0.81552951  0.41484857    -0.07400
C938        C  0.93668926  0.78926649  0.40668115    -0.18500
C939        C  0.95085464  0.78097201  0.36359041     0.09800
C940        C  0.93565139  0.80703275  0.32936594    -0.07300
C941        C  0.89278898  0.82011241  0.33560255    -0.18500
C942        C  0.87364766  0.81834381  0.37758223     0.09800
S943        S  0.97113340  0.72809488  0.35225631    -0.33500
S944        S  0.81797003  0.80156727  0.38057856    -0.33500
H945        H  0.81841750  0.79087045  0.42503700     0.27900
H946        H  0.94213422  0.72020012  0.31839362     0.27900
H947        H  0.94945081  0.76966777  0.43197877     0.18400
H948        H  0.87313095  0.82735298  0.30766699     0.18400
C949        C  0.91314456  0.15339228  0.58429818    -0.07400
C950        C  0.90818243  0.19326559  0.60446939    -0.18500
C951        C  0.92426655  0.20089523  0.64615359     0.09800
C952        C  0.94043214  0.16620617  0.67134593    -0.07300
C953        C  0.94116185  0.12549561  0.65195352    -0.18500
C954        C  0.93285421  0.12016864  0.60786842     0.09800
S955        S  0.92117597  0.25509299  0.66529854    -0.33500
S956        S  0.94833342  0.07047533  0.58325443    -0.33500
H957        H  0.95120741  0.08615023  0.54040312     0.27900
H958        H  0.96588668  0.25777488  0.67272250     0.27900
H959        H  0.89110213  0.21852137  0.58758790     0.18400
H960        H  0.94893487  0.09729362  0.67092930     0.18400
C961        C  0.82945696  0.10530174  0.58735947    -0.07400
C962        C  0.83211977  0.13295768  0.62311233    -0.18500
C963        C  0.82990692  0.11666075  0.66590587     0.09800
C964        C  0.81826196  0.07324750  0.67334074    -0.07300
C965        C  0.79883275  0.05201677  0.63845752    -0.18500
C966        C  0.80065559  0.07046457  0.59606913     0.09800
S967        S  0.83852310  0.15284552  0.70983554    -0.33500
S968        S  0.75449863  0.06203737  0.56217406    -0.33500
H969        H  0.75947628  0.10135289  0.53951908     0.27900
H970        H  0.87241217  0.12811340  0.72583621     0.27900
H971        H  0.83588970  0.16695186  0.61796634     0.18400
H972        H  0.78006337  0.02306144  0.64478753     0.18400
C973        C  0.90327282  0.16142560  0.41601518    -0.07400
C974        C  0.93162200  0.13614436  0.39184093    -0.18500
C975        C  0.93691658  0.14135384  0.34682146     0.09800
C976        C  0.91755925  0.17567444  0.32349659    -0.07300
C977        C  0.89063076  0.20281532  0.34781492    -0.18500
C978        C  0.88362800  0.19624891  0.39335860     0.09800
S979        S  0.96375611  0.09863831  0.31998751    -0.33500
S980        S  0.85074843  0.23451084  0.42112841    -0.33500
H981        H  0.87006720  0.22885842  0.46177190     0.27900
H982        H  0.92894507  0.09240678  0.29201966     0.27900
H983        H  0.94751226  0.10966671  0.40793120     0.18400
H984        H  0.87558280  0.22974064  0.33162854     0.18400
C985        C  0.85128100  0.08812813  0.42393033    -0.07400
C986        C  0.87923143  0.05555157  0.41194593    -0.18500
C987        C  0.87993131  0.04048778  0.36986317     0.09800
C988        C  0.84827005  0.05425135  0.34034452    -0.07300
C989        C  0.81945395  0.08641304  0.35279636    -0.18500
C990        C  0.82126032  0.10436869  0.39387050     0.09800
S991        S  0.92547268  0.00949569  0.35394658    -0.33500
S992        S  0.78232581  0.14521967  0.40649317    -0.33500
H993        H  0.79096653  0.14890949  0.45086112     0.27900
H994        H  0.94194139  0.00082017  0.39544930     0.27900
H995        H  0.90338269  0.04509708  0.43483025     0.18400
H996        H  0.79586103  0.09832909  0.33003488     0.18400
C997        C  0.83670186  0.03991261  0.50678102    -0.07400
C998        C  0.85219982  0.01325352  0.54044914    -0.18500
C999        C  0.83837739  0.96985194  0.54278149     0.09800
C1000       C  0.83809126  0.94586912  0.50442621    -0.07300
C1001       C  0.81837632  0.97102095  0.47136968    -0.18500
C1002       C  0.81290501  0.01629805  0.47492424     0.09800
S1003       S  0.79082425  0.96214527  0.57655085    -0.33500
S1004       S  0.76732132  0.03740595  0.44622373    -0.33500
H1005       H  0.76593202  0.07588656  0.46903253     0.27900
H1006       H  0.77429654  0.92609586  0.55479663     0.27900
H1007       H  0.86730312  0.02706773  0.56843771     0.18400
H1008       H  0.80063788  0.95674736  0.44628982     0.18400
C1009       C  0.16682957  0.07216208  0.66613006    -0.07400
C1010       C  0.19690933  0.09987777  0.64527459    -0.18500
C1011       C  0.19358840  0.11047271  0.60127364     0.09800
C1012       C  0.16052428  0.09147736  0.57668267    -0.07300
C1013       C  0.13417820  0.05979684  0.59571146    -0.18500
C1014       C  0.13465400  0.05195505  0.64027855     0.09800
S1015       S  0.23239562  0.14868971  0.57900340    -0.33500
S1016       S  0.08876731  0.02035150  0.65910670    -0.33500
H1017       H  0.08606480  0.02834072  0.70326288     0.27900
H1018       H  0.21754874  0.15015913  0.53621214     0.27900
H1019       H  0.22275591  0.11448803  0.66353909     0.18400
H1020       H  0.10868766  0.04553044  0.57657986     0.18400
C1021       C  0.10406613  0.16084548  0.58408882    -0.07400
C1022       C  0.07484727  0.13462874  0.60725598    -0.18500
C1023       C  0.06754416  0.13918729  0.65170335     0.09800
C1024       C  0.08867607  0.17150422  0.67608795    -0.07300
C1025       C  0.11700280  0.19940279  0.65260462    -0.18500
C1026       C  0.12438268  0.19475881  0.60710711     0.09800
S1027       S  0.03318793  0.09923842  0.67579512    -0.33500
S1028       S  0.15906879  0.23360921  0.58008020    -0.33500
H1029       H  0.14138694  0.22857229  0.53866752     0.27900
H1030       H  0.06240281  0.09232786  0.70935189     0.27900
H1031       H  0.05857769  0.10879683  0.59046394     0.18400
H1032       H  0.13289883  0.22535797  0.66942862     0.18400
C1033       C  0.06845398  0.17292596  0.32804346    -0.07400
C1034       C  0.05892201  0.13408860  0.34969045    -0.18500
C1035       C  0.06640095  0.12815651  0.39373088     0.09800
C1036       C  0.09192366  0.15811773  0.41604391    -0.07300
C1037       C  0.10447928  0.19623683  0.39412857    -0.18500
C1038       C  0.09182635  0.20480915  0.35103247     0.09800
S1039       S  0.04153794  0.08179354  0.41915834    -0.33500
S1040       S  0.10949110  0.25466562  0.32550539    -0.33500
H1041       H  0.13535979  0.26944589  0.35955127     0.27900
H1042       H  0.04291588  0.09676713  0.46183888     0.27900
H1043       H  0.04577870  0.10743986  0.33217187     0.18400
H1044       H  0.12530543  0.21869041  0.41069499     0.18400
C1045       C  0.16617089  0.10019088  0.41316970    -0.07400
C1046       C  0.17135870  0.12842359  0.37735988    -0.18500
C1047       C  0.17048553  0.11253374  0.33481857     0.09800
C1048       C  0.16650179  0.06779613  0.32840568    -0.07300
C1049       C  0.17065611  0.04065652  0.36437456    -0.18500
C1050       C  0.18019342  0.05812577  0.40463752     0.09800
S1051       S  0.17333725  0.14997838  0.29021456    -0.33500
S1052       S  0.23407343  0.04413233  0.42017876    -0.33500
H1053       H  0.24537074  0.08523620  0.43510292     0.27900
H1054       H  0.13548413  0.13282041  0.27263191     0.27900
H1055       H  0.17493239  0.16244594  0.38225741     0.18400
H1056       H  0.17544063  0.00684304  0.35941806     0.18400
C1057       C  0.04869161  0.18245325  0.50159079    -0.07400
C1058       C  0.02334780  0.18708098  0.53971372    -0.18500
C1059       C  0.97897748  0.19620654  0.53655951     0.09800
C1060       C  0.95705932  0.18165528  0.49946945    -0.07300
C1061       C  0.98201318  0.19048362  0.46145656    -0.18500
C1062       C  0.02692591  0.19848124  0.46461770     0.09800
S1063       S  0.96678724  0.25062860  0.55182946    -0.33500
S1064       S  0.04302048  0.25077948  0.44385906    -0.33500
H1065       H  0.08021950  0.25442752  0.46952052     0.27900
H1066       H  0.99484712  0.25206765  0.58741718     0.27900
H1067       H  0.03835930  0.19679082  0.56908280     0.18400
H1068       H  0.96685927  0.20222300  0.43260491     0.18400
C1069       C  0.10927278  0.83292929  0.58768720    -0.07400
C1070       C  0.07861312  0.79920689  0.59487153    -0.18500
C1071       C  0.05889140  0.79034908  0.63553188     0.09800
C1072       C  0.07141717  0.81449278  0.67167429    -0.07300
C1073       C  0.10749279  0.84056676  0.66717763    -0.18500
C1074       C  0.12743781  0.84729888  0.62703099     0.09800
S1075       S  0.01972918  0.74711860  0.63852022    -0.33500
S1076       S  0.17749449  0.87360298  0.63108430    -0.33500
H1077       H  0.17532189  0.96354888  0.60421897     0.27900
H1078       H  0.99902727  0.75950539  0.67677834     0.27900
H1079       H  0.07088891  0.77771899  0.56967282     0.18400
H1080       H  0.12122980  0.85514245  0.69580138     0.18400
C1081       C  0.16263918  0.91653209  0.56375478    -0.07400
C1082       C  0.21568021  0.92278914  0.57862399    -0.18500
C1083       C  0.22686535  0.93853145  0.63024750     0.09800
C1084       C  0.18457670  0.94639124  0.66511355    -0.07300
C1085       C  0.13408504  0.94007369  0.64814781    -0.18500
C1086       C  0.12311184  0.92808364  0.59812647     0.09800
S1087       S  0.28194646  0.94361688  0.64664517    -0.33500
S1088       S  0.07006819  0.93929944  0.57979874    -0.33500
H1089       H  0.08365666  0.94864571  0.53714674     0.27900
H1090       H  0.27363200  0.97628920  0.67643316     0.27900
H1091       H  0.24160789  0.91196533  0.55794908     0.18400
H1092       H  0.10724244  0.94050307  0.67070923     0.18400
C1093       C  0.08225117  0.82356328  0.31815019    -0.07400
C1094       C  0.05092261  0.85433899  0.34842310    -0.18500
C1095       C  0.05634058  0.85597434  0.40121402     0.09800
C1096       C  0.09479518  0.82519768  0.42613491    -0.07300
C1097       C  0.12871810  0.79480708  0.39493464    -0.18500
C1098       C  0.12221068  0.79454229  0.34059920     0.09800
S1099       S  0.02951449  0.90139002  0.42152783    -0.33500
S1100       S  0.15684154  0.76187045  0.30835875    -0.33500
H1101       H  0.14463407  0.78067324  0.26874350     0.27900
H1102       H  0.06157262  0.90976187  0.45161967     0.27900
H1103       H  0.02600799  0.87336404  0.33340659     0.18400
H1104       H  0.15575578  0.77852210  0.40944333     0.18400
C1105       C  0.15244991  0.88116266  0.40388103    -0.07400
C1106       C  0.19156562  0.90244583  0.39437029    -0.18500
C1107       C  0.20003180  0.92035978  0.35396153     0.09800
C1108       C  0.16687434  0.92056092  0.32343062    -0.07300
C1109       C  0.13077378  0.89289727  0.33010323    -0.18500
C1110       C  0.12391597  0.86474497  0.36806806     0.09800
S1111       S  0.25302712  0.94369307  0.34487680    -0.33500
S1112       S  0.05252326  0.78032839  0.37824861    -0.33500
H1113       H  0.06671087  0.75086035  0.41011416     0.27900
H1114       H  0.23900790  0.98466801  0.33251462     0.27900
H1115       H  0.21518424  0.90686349  0.41964094     0.18400
H1116       H  0.10803624  0.89379684  0.30392876     0.18400
C1117       C  0.16102753  0.95171060  0.47703711    -0.07400
C1118       C  0.19559582  0.97353288  0.49668615    -0.18500
C1119       C  0.19395620  0.01759046  0.50709119     0.09800
C1120       C  0.15753504  0.04213423  0.49505249    -0.07300
C1121       C  0.12356849  0.02013121  0.47529899    -0.18500
C1122       C  0.12761803  0.97791896  0.46099581     0.09800
S1123       S  0.24057728  0.04002108  0.53302734    -0.33500
S1124       S  0.10485858  0.96884131  0.40866184    -0.33500
H1125       H  0.06695491  0.99209726  0.41597466     0.27900
H1126       H  0.23756927  0.08035432  0.51268259     0.27900
H1127       H  0.22448266  0.95599981  0.50364771     0.18400
H1128       H  0.09637624  0.03827505  0.46497462     0.18400
C1129       C  0.04987295  0.82462103  0.50774878    -0.07400
C1130       C  0.02532683  0.86142152  0.50973022    -0.18500
C1131       C  0.98164706  0.86160025  0.49961978     0.09800
C1132       C  0.95881398  0.82243973  0.49802162    -0.07300
C1133       C  0.98220712  0.78389757  0.50210081    -0.18500
C1134       C  0.02801429  0.78483960  0.50189476     0.09800
S1135       S  0.95518780  0.91321399  0.49311285    -0.33500
S1136       S  0.05795455  0.73574862  0.49669365    -0.33500
H1137       H  0.02197877  0.70779923  0.49794918     0.27900
H1138       H  0.99109658  0.93984195  0.50119782     0.27900
H1139       H  0.04134913  0.89142174  0.51533507     0.18400
H1140       H  0.96486374  0.75351565  0.50281222     0.18400
loop_ 
_geom_bond_atom_site_label_1 
_geom_bond_atom_site_label_2 
_geom_bond_distance 
_geom_bond_site_symmetry_2 
_ccdc_geom_bond_type 
C1            C2   1.400       .  A
C1            C6   1.385       .  A
C1         C1096   1.396       .  S
C2            C3   1.427       .  A
C2         C1129   1.510       .  S
C3            C4   1.479       .  A
C3         C1069   1.577       .  S
C4            C5   1.441       .  A
C4         C1081   1.461       .  S
C5            C6   1.420       .  A
C5         C1117   1.539       .  S
C6         C1105   1.532       .  S
C7            C8   1.454       .  A
C7           C12   1.463       .  A
C7         C1036   1.499       .  S
C8            C9   1.428       .  A
C8         C1045   1.551       .  S
C9           C10   1.416       .  A
C9         C1120   1.522       .  S
C10          C11   1.437       .  A
C10        C1012   1.483       .  S
C11          C12   1.451       .  A
C11        C1021   1.527       .  S
C12        C1057   1.565       .  S
C13          C14   1.441       .  A
C13          C18   1.439       .  A
C13         C985   1.468       .  S
C14          C15   1.444       .  A
C14         C973   1.545       .  S
C15          C16   1.468       .  A
C15        C1060   1.570       .  S
C16          C17   1.467       .  A
C16         C949   1.500       .  S
C17          C18   1.445       .  A
C17         C961   1.571       .  S
C18         C997   1.567       .  S
C19          C20   1.426       .  A
C19          C24   1.428       .  A
C19         C901   1.543       .  S
C20          C21   1.446       .  A
C20        C1132   1.492       .  S
C21          C22   1.473       .  A
C21         C937   1.583       .  S
C22          C23   1.455       .  A
C22         C928   1.477       .  S
C23          C24   1.450       .  A
C23        C1000   1.601       .  S
C24         C913   1.471       .  S
C25          C26   1.444       .  A
C25          C30   1.456       .  A
C25         C841   1.481       .  S
C26          C27   1.452       .  A
C26         C889   1.600       .  S
C27          C28   1.439       .  A
C27         C868   1.474       .  S
C28          C29   1.442       .  A
C28         C853   1.551       .  S
C29          C30   1.436       .  A
C29         C877   1.529       .  S
C30         C829   1.524       .  S
C31          C32   1.438       .  A
C31          C36   1.428       .  A
C31         C784   1.467       .  S
C32          C33   1.468       .  A
C32         C892   1.571       .  S
C33          C34   1.472       .  A
C33         C805   1.566       .  S
C34          C35   1.409       .  A
C34         C796   1.476       .  S
C35          C36   1.403       .  A
C35         C820   1.509       .  S
C36         C769   1.520       .  S
C37          C38   1.434       .  A
C37          C42   1.419       .  A
C37         C745   1.511       .  S
C38          C39   1.451       .  A
C38         C736   1.518       .  S
C39          C40   1.437       .  A
C39         C880   1.531       .  S
C40          C41   1.430       .  A
C40         C709   1.480       .  S
C41          C42   1.419       .  A
C41         C721   1.531       .  S
C42         C757   1.494       .  S
C43          C44   1.430       .  A
C43          C48   1.430       .  A
C43         C661   1.547       .  S
C44          C45   1.431       .  A
C44         C817   1.491       .  S
C45          C46   1.454       .  A
C45         C685   1.517       .  S
C46          C47   1.452       .  A
C46         C697   1.562       .  S
C47          C48   1.438       .  A
C47         C760   1.514       .  S
C48         C673   1.493       .  S
C49          C50   1.427       .  A
C49          C54   1.467       .  A
C49         C616   1.560       .  S
C50          C51   1.408       .  A
C50         C649   1.523       .  S
C51          C52   1.428       .  A
C51         C589   1.467       .  S
C52          C53   1.461       .  A
C52         C601   1.554       .  S
C53          C54   1.468       .  A
C53         C637   1.555       .  S
C54         C625   1.507       .  S
C55          C56   1.425       .  A
C55          C60   1.398       .  A
C55         C556   1.484       .  S
C56          C57   1.447       .  A
C56         C565   1.500       .  S
C57          C58   1.466       .  A
C57         C640   1.561       .  S
C58          C59   1.458       .  A
C58         C541   1.544       .  S
C59          C60   1.407       .  A
C59         C532   1.488       .  S
C60         C577   1.519       .  S
C61          C62   1.430       .  A
C61          C66   1.437       .  A
C61         C505   1.510       .  S
C62          C63   1.436       .  A
C62         C493   1.533       .  S
C63          C64   1.437       .  A
C63         C580   1.518       .  S
C64          C65   1.440       .  A
C64         C469   1.511       .  S
C65          C66   1.438       .  A
C65         C481   1.545       .  S
C66         C520   1.495       .  S
C67          C68   1.423       .  A
C67          C72   1.436       .  A
C67         C421   1.503       .  S
C68          C69   1.431       .  A
C68         C652   1.541       .  S
C69          C70   1.443       .  A
C69         C445   1.465       .  S
C70          C71   1.428       .  A
C70         C457   1.548       .  S
C71          C72   1.438       .  A
C71         C517   1.506       .  S
C72         C433   1.506       .  S
O73          C81   1.256       .  A
O73         Co93   1.970       .  S
O74          C82   1.292       .  A
O74         Co94   2.020   1_545  S
O75          C83   1.264       .  A
O75         Co95   1.970       .  S
O76          C84   1.258       .  A
O76         Co96   2.056       .  S
O77          C83   1.288       .  A
O77         Co94   2.009       .  S
O78          C84   1.241       .  A
O78         Co93   1.962   1_545  S
O79          C82   1.288       .  A
O79         Co96   2.057       .  S
O80          C81   1.287       .  A
O80         Co95   2.082       .  S
C81         C342   1.497       .  S
C82         C258   1.516       .  S
C83         C170   1.468       .  S
C84         C110   1.496       .  S
O85          C98   1.296       .  A
O85         Co93   2.096   1_545  S
O86          C99   1.272       .  A
O86         Co94   2.038       .  S
O87         C100   1.234       .  A
O87         Co95   1.950       .  S
O88         C101   1.267       .  A
O88         Co96   2.005       .  S
O89         C101   1.262       .  A
O89         Co94   1.985   1_545  S
O90         C100   1.258       .  A
O90         Co93   1.973       .  S
O91          C98   1.285       .  A
O91         Co96   1.895       .  S
O92          C99   1.252       .  A
O92         Co95   1.968       .  S
Co93         O97   2.096       .  S
Co94         O97   2.049       .  S
Co95         O97   2.094       .  S
Co96         O97   2.030   1_545  S
C98        C1009   1.487       .  S
C99         C688   1.501       .  S
C100       C1084   1.443       .  S
C101        C793   1.480       .  S
O102        C110   1.282       .  A
O102       Co122   1.926       .  S
O103        C111   1.271       .  A
O103       Co123   1.992   1_655  S
O104        C112   1.276       .  A
O104       Co124   2.033       .  S
O105        C113   1.259       .  A
O105       Co125   1.961       .  S
O106        C112   1.246       .  A
O106       Co123   1.933       .  S
O107        C113   1.281       .  A
O107       Co122   2.003   1_655  S
O108        C111   1.290       .  A
O108       Co125   2.049       .  S
O109        C110   1.291       .  A
O109       Co124   2.104       .  S
C111        C314   1.494       .  S
C112        C256   1.457       .  S
C113        C371   1.465       .  S
O114        C127   1.284       .  A
O114       Co122   2.030   1_655  S
O115        C128   1.291       .  A
O115       Co123   2.077       .  S
O116        C129   1.277       .  A
O116       Co124   1.954       .  S
O117        C130   1.261       .  A
O117       Co125   1.971       .  S
O118        C130   1.251       .  A
O118       Co123   1.948   1_655  S
O119        C129   1.293       .  A
O119       Co122   2.115       .  S
O120        C127   1.274       .  A
O120       Co125   1.989       .  S
O121        C128   1.264       .  A
O121       Co124   1.957       .  S
Co122       O126   1.963   1_455  S
Co123       O126   2.016   1_455  S
Co124       O126   2.030   1_455  S
Co125       O126   2.015       .  S
C127        C952   1.507       .  S
C128        C613   1.495       .  S
C129       C1024   1.532       .  S
C130        C448   1.455       .  S
O131        C139   1.270       .  A
O131       Co151   1.984       .  S
O132        C140   1.274       .  A
O132       Co152   1.984   1_655  S
O133        C141   1.263       .  A
O133       Co153   1.969       .  S
O134        C142   1.279       .  A
O134       Co154   2.060       .  S
O135        C141   1.278       .  A
O135       Co152   2.015       .  S
O136        C142   1.260       .  A
O136       Co151   1.988   1_655  S
O137        C140   1.266       .  A
O137       Co154   1.997       .  S
O138        C139   1.272       .  A
O138       Co153   2.020       .  S
C139        C226   1.473       .  S
C140        C402   1.466       .  S
C141        C171   1.482       .  S
C142        C286   1.499       .  S
O143        C156   1.284       .  A
O143       Co151   2.091   1_655  S
O144        C157   1.263       .  A
O144       Co152   1.996       .  S
O145        C158   1.260       .  A
O145       Co153   1.949       .  S
O146        C159   1.253       .  A
O146       Co154   1.943       .  S
O147        C159   1.273       .  A
O147       Co152   2.014   1_655  S
O148        C158   1.263       .  A
O148       Co151   1.988       .  S
O149        C156   1.246       .  A
O149       Co154   1.958       .  S
O150        C157   1.270       .  A
O150       Co153   1.982       .  S
Co151       O155   2.097       .  S
Co152       O155   2.113       .  S
Co153       O155   2.114       .  S
Co154       O155   2.108   1_655  S
C156        C940   1.523       .  S
C157        C529   1.485       .  S
C158       C1093   1.445       .  S
C159        C472   1.473       .  S
O160        C168   1.277       .  A
O160       Co180   2.025       .  S
O161        C169   1.278       .  A
O161       Co181   2.060       .  S
O162        C170   1.251       .  A
O162       Co182   1.955       .  S
O163        C171   1.266       .  A
O163       Co183   1.997   1_554  S
O164        C170   1.286       .  A
O164       Co181   2.039       .  S
O165        C171   1.278       .  A
O165       Co180   2.007       .  S
O166        C169   1.280       .  A
O166       Co183   1.906       .  S
O167        C168   1.261       .  A
O167       Co182   1.974   1_554  S
C168        C229   1.477       .  S
C169        C345   1.454       .  S
O172        C185   1.248       .  A
O172       Co180   1.939       .  S
O173        C186   1.271       .  A
O173       Co181   1.971       .  S
O174        C187   1.273       .  A
O174       Co182   2.014   1_554  S
O175        C188   1.297       .  A
O175       Co183   2.126       .  S
O176        C188   1.280       .  A
O176       Co181   1.958       .  S
O177        C187   1.252       .  A
O177       Co180   1.949       .  S
O178        C185   1.282       .  A
O178       Co183   2.053   1_554  S
O179        C186   1.280       .  A
O179       Co182   2.042       .  S
Co180       O184   2.006       .  S
Co181       O184   1.997   1_556  S
Co182       O184   2.017   1_556  S
Co183       O184   2.008   1_556  S
C185        C544   1.468       .  S
C186        C700   1.479       .  S
C187        C748   1.476       .  S
C188        C604   1.543       .  S
O189        C197   1.267       .  A
O189       Co209   1.982       .  S
O190        C198   1.279       .  A
O190       Co210   2.045       .  S
O191        C199   1.279       .  A
O191       Co211   1.908   1_655  S
O192        C200   1.266       .  A
O192       Co212   1.989       .  S
O193        C199   1.291       .  A
O193       Co210   2.098       .  S
O194        C200   1.284       .  A
O194       Co209   2.015       .  S
O195        C198   1.243       .  A
O195       Co212   1.924   1_655  S
O196        C197   1.276       .  A
O196       Co211   2.005       .  S
C197        C228   1.480       .  S
C198        C316   1.463       .  S
C199        C284   1.477       .  S
C200        C257   1.475       .  S
O201        C214   1.267       .  A
O201       Co209   1.988       .  S
O202        C215   1.279       .  A
O202       Co210   1.961       .  S
O203        C216   1.286       .  A
O203       Co211   2.035       .  S
O204        C217   1.294       .  A
O204       Co212   2.079   1_655  S
O205        C217   1.266       .  A
O205       Co210   1.953       .  S
O206        C216   1.271       .  A
O206       Co209   1.980       .  S
O207        C214   1.257       .  A
O207       Co212   1.969       .  S
O208        C215   1.291       .  A
O208       Co211   2.108   1_655  S
Co209       O213   2.016       .  S
Co210       O213   2.030   1_655  S
Co211       O213   1.975       .  S
Co212       O213   2.019       .  S
C214        C553   1.464       .  S
C215        C976   1.533       .  S
C216       C1033   1.502       .  S
C217        C496   1.484       .  S
O218        C226   1.292       .  A
O218       Co238   2.028       .  S
O219        C227   1.245       .  A
O219       Co239   2.007       .  S
O220        C228   1.278       .  A
O220       Co240   1.996   1_545  S
O221        C229   1.247       .  A
O221       Co241   1.991   1_565  S
O222        C228   1.291       .  A
O222       Co239   2.023       .  S
O223        C229   1.243       .  A
O223       Co238   2.004       .  S
O224        C227   1.239       .  A
O224       Co241   1.968       .  S
O225        C226   1.281       .  A
O225       Co240   1.988       .  S
C227        C255   1.456       .  S
O230        C243   1.288       .  A
O230       Co238   1.939       .  S
O231        C244   1.264       .  A
O231       Co239   1.959       .  S
O232        C245   1.272       .  A
O232       Co240   2.010       .  S
O233        C246   1.300       .  A
O233       Co241   2.090       .  S
O234        C246   1.287       .  A
O234       Co239   1.957       .  S
O235        C245   1.263       .  A
O235       Co238   1.951       .  S
O236        C243   1.299       .  A
O236       Co241   2.081   1_565  S
O237        C244   1.273       .  A
O237       Co240   2.036   1_545  S
Co238       O242   1.996   1_565  S
Co239       O242   2.011       .  S
Co240       O242   2.046   1_565  S
Co241       O242   2.073       .  S
C243        C733   1.507       .  S
C244       C1048   1.476       .  S
C245       C1108   1.486       .  S
C246        C856   1.518       .  S
O247        C255   1.271       .  A
O247       Co267   1.970   1_554  S
O248        C256   1.280       .  A
O248       Co268   1.887       .  S
O249        C257   1.263       .  A
O249       Co269   1.957       .  S
O250        C258   1.285       .  A
O250       Co270   2.067       .  S
O251        C257   1.280       .  A
O251       Co268   2.017   1_554  S
O252        C258   1.268       .  A
O252       Co267   2.003       .  S
O253        C256   1.284       .  A
O253       Co270   2.086       .  S
O254        C255   1.280       .  A
O254       Co269   2.010       .  S
O259        C272   1.286       .  A
O259       Co267   2.020       .  S
O260        C273   1.277       .  A
O260       Co268   2.015   1_554  S
O261        C274   1.265       .  A
O261       Co269   1.967       .  S
O262        C275   1.276       .  A
O262       Co270   1.928       .  S
O263        C275   1.293       .  A
O263       Co268   2.112       .  S
O264        C274   1.268       .  A
O264       Co267   1.991   1_554  S
O265        C272   1.261       .  A
O265       Co270   1.963       .  S
O266        C273   1.279       .  A
O266       Co269   1.995       .  S
Co267       O271   2.009       .  S
Co268       O271   1.949       .  S
Co269       O271   2.014   1_554  S
Co270       O271   1.997       .  S
C272        C808   1.473       .  S
C273        C568   1.497       .  S
C274        C865   1.468       .  S
C275        C628   1.497       .  S
O276        C284   1.279       .  A
O276       Co296   2.046       .  S
O277        C285   1.278       .  A
O277       Co297   2.045       .  S
O278        C286   1.271       .  A
O278       Co298   1.999       .  S
O279        C287   1.266       .  A
O279       Co299   1.970       .  S
O280        C286   1.270       .  A
O280       Co297   2.031       .  S
O281        C287   1.262       .  A
O281       Co296   2.000       .  S
O282        C285   1.258       .  A
O282       Co299   1.956   1_565  S
O283        C284   1.263       .  A
O283       Co298   1.960   1_545  S
C285        C400   1.478       .  S
C287        C313   1.457       .  S
O288        C301   1.271       .  A
O288       Co296   2.012       .  S
O289        C302   1.257       .  A
O289       Co297   1.969       .  S
O290        C303   1.270       .  A
O290       Co298   2.030   1_545  S
O291        C304   1.274       .  A
O291       Co299   2.039   1_565  S
O292        C304   1.249       .  A
O292       Co297   1.941       .  S
O293        C303   1.260       .  A
O293       Co296   1.948       .  S
O294        C301   1.262       .  A
O294       Co299   2.001       .  S
O295        C302   1.263       .  A
O295       Co298   1.988       .  S
Co296       O300   2.127   1_545  S
Co297       O300   2.112       .  S
Co298       O300   2.116       .  S
Co299       O300   2.101   1_545  S
C301        C832   1.509       .  S
C302        C925   1.483       .  S
C303        C988   1.472       .  S
C304        C712   1.477       .  S
O305        C313   1.279       .  A
O305       Co325   2.032       .  S
O306        C314   1.268       .  A
O306       Co326   1.982       .  S
O307        C315   1.263       .  A
O307       Co327   1.966   1_556  S
O308        C316   1.282       .  A
O308       Co328   1.917       .  S
O309        C315   1.285       .  A
O309       Co326   2.058       .  S
O310        C316   1.276       .  A
O310       Co325   2.063       .  S
O311        C314   1.284       .  A
O311       Co328   2.021   1_556  S
O312        C313   1.256       .  A
O312       Co327   1.956       .  S
C315        C373   1.491       .  S
O317        C330   1.273       .  A
O317       Co325   1.913       .  S
O318        C331   1.255       .  A
O318       Co326   1.937       .  S
O319        C332   1.270       .  A
O319       Co327   2.017       .  S
O320        C333   1.274       .  A
O320       Co328   2.020   1_556  S
O321        C333   1.267       .  A
O321       Co326   1.984       .  S
O322        C332   1.263       .  A
O322       Co325   1.975       .  S
O323        C330   1.296       .  A
O323       Co328   2.115       .  S
O324        C331   1.262       .  A
O324       Co327   1.986   1_556  S
Co325       O329   2.014       .  S
Co326       O329   2.010   1_556  S
Co327       O329   2.034       .  S
Co328       O329   2.000       .  S
C330        C508   1.488       .  S
C331        C781   1.464       .  S
C332        C844   1.480       .  S
C333        C460   1.479       .  S
O334        C342   1.268       .  A
O334       Co354   2.006       .  S
O335        C343   1.276       .  A
O335       Co355   2.013       .  S
O336        C344   1.278       .  A
O336       Co356   1.906   1_655  S
O337        C345   1.256       .  A
O337       Co357   1.936   1_455  S
O338        C344   1.289       .  A
O338       Co355   2.103       .  S
O339        C345   1.281       .  A
O339       Co354   2.033       .  S
O340        C343   1.258       .  A
O340       Co357   1.961       .  S
O341        C342   1.284       .  A
O341       Co356   2.018       .  S
C343        C401   1.456       .  S
C344        C374   1.465       .  S
O346        C359   1.254       .  A
O346       Co354   1.926       .  S
O347        C360   1.274       .  A
O347       Co355   1.927       .  S
O348        C361   1.275       .  A
O348       Co356   2.012       .  S
O349        C362   1.272       .  A
O349       Co357   2.012       .  S
O350        C362   1.273       .  A
O350       Co355   2.000       .  S
O351        C361   1.263       .  A
O351       Co354   1.983       .  S
O352        C359   1.269       .  A
O352       Co357   1.998   1_455  S
O353        C360   1.300       .  A
O353       Co356   2.120   1_655  S
Co354       O358   2.019       .  S
Co355       O358   1.996   1_655  S
Co356       O358   1.968       .  S
Co357       O358   2.026   1_655  S
C359        C592   1.460       .  S
C360        C904   1.510       .  S
C361       C1072   1.475       .  S
C362        C424   1.490       .  S
O363        C371   1.251       .  A
O363       Co383   1.962       .  S
O364        C372   1.273       .  A
O364       Co384   2.003       .  S
O365        C373   1.283       .  A
O365       Co385   2.080       .  S
O366        C374   1.273       .  A
O366       Co386   2.006       .  S
O367        C373   1.281       .  A
O367       Co384   1.937   1_545  S
O368        C374   1.266       .  A
O368       Co383   1.967   1_565  S
O369        C372   1.278       .  A
O369       Co386   2.020       .  S
O370        C371   1.279       .  A
O370       Co385   2.024       .  S
C372        C403   1.497       .  S
O375        C388   1.261       .  A
O375       Co383   1.981   1_565  S
O376        C389   1.290       .  A
O376       Co384   2.104   1_545  S
O377        C390   1.270       .  A
O377       Co385   1.990       .  S
O378        C391   1.254       .  A
O378       Co386   1.951       .  S
O379        C391   1.287       .  A
O379       Co384   2.066       .  S
O380        C390   1.284       .  A
O380       Co383   2.059       .  S
O381        C388   1.257       .  A
O381       Co386   1.952       .  S
O382        C389   1.275       .  A
O382       Co385   1.934       .  S
Co383       O387   2.050   1_545  S
Co384       O387   2.016       .  S
Co385       O387   2.013   1_545  S
Co386       O387   2.019       .  S
C388        C916   1.456       .  S
C389        C772   1.514       .  S
C390        C964   1.503       .  S
C391        C664   1.490       .  S
O392        C400   1.281       .  A
O392       Co412   1.922       .  S
O393        C401   1.275       .  A
O393       Co413   1.984   1_556  S
O394        C402   1.277       .  A
O394       Co414   2.017       .  S
O395        C403   1.276       .  A
O395       Co415   2.007       .  S
O396        C402   1.259       .  A
O396       Co413   1.977       .  S
O397        C403   1.281       .  A
O397       Co412   2.020   1_556  S
O398        C401   1.270       .  A
O398       Co415   1.991       .  S
O399        C400   1.287       .  A
O399       Co414   2.101       .  S
O404        C417   1.279       .  A
O404       Co412   2.014   1_556  S
O405        C418   1.288       .  A
O405       Co413   2.067       .  S
O406        C419   1.275       .  A
O406       Co414   1.938       .  S
O407        C420   1.268       .  A
O407       Co415   1.985       .  S
O408        C420   1.267       .  A
O408       Co413   1.989   1_556  S
O409        C419   1.294       .  A
O409       Co412   2.110       .  S
O410        C417   1.262       .  A
O410       Co415   1.952       .  S
O411        C418   1.264       .  A
O411       Co414   1.962       .  S
Co412       O416   1.984   1_554  S
Co413       O416   2.002   1_554  S
Co414       O416   2.006   1_554  S
Co415       O416   2.015       .  S
C417        C676   1.477       .  S
C418        C484   1.484       .  S
C419        C724   1.511       .  S
C420        C436   1.476       .  S
C421        C422   1.416       .  A
C421        C426   1.408       .  A
C422        C423   1.417       .  A
C422        H431   1.083       .  S
C423        C424   1.412       .  A
C423        S427   1.797       .  S
C424        C425   1.392       .  A
C425        C426   1.388       .  A
C425        H432   1.071       .  S
C426        S428   1.791       .  S
S427        H430   1.407       .  S
S428        H429   1.367       .  S
C433        C434   1.412       .  A
C433        C438   1.424       .  A
C434        C435   1.413       .  A
C434        H443   1.083       .  S
C435        C436   1.409       .  A
C435        S439   1.803       .  S
C436        C437   1.391       .  A
C437        C438   1.383       .  A
C437        H444   1.085       .  S
C438        S440   1.787       .  S
S439        H442   1.406       .  S
S440        H441   1.350       .  S
C445        C446   1.395       .  A
C445        C450   1.405       .  A
C446        C447   1.371       .  A
C446        H455   1.074       .  S
C447        C448   1.415       .  A
C447        S451   1.816       .  S
C448        C449   1.405       .  A
C449        C450   1.392       .  A
C449        H456   1.083       .  S
C450        S452   1.802       .  S
S451        H454   1.409       .  S
S452        H453   1.405       .  S
C457        C458   1.411       .  A
C457        C462   1.412       .  A
C458        C459   1.408       .  A
C458        H467   1.081       .  S
C459        C460   1.417       .  A
C459        S463   1.799       .  S
C460        C461   1.403       .  A
C461        C462   1.403       .  A
C461        H468   1.083   1_556  S
C462        S464   1.804       .  S
S463        H466   1.402       .  S
S464        H465   1.409       .  S
C469        C470   1.408       .  A
C469        C474   1.421       .  A
C470        C471   1.396       .  A
C470        H479   1.082       .  S
C471        C472   1.417       .  A
C471        S475   1.803       .  S
C472        C473   1.393       .  A
C473        C474   1.381       .  A
C473        H480   1.085       .  S
C474        S476   1.803       .  S
S475        H478   1.396   1_655  S
S476        H477   2.878       .  S
C481        C482   1.717       .  A
C481        C486   1.722       .  A
C482        C483   1.685       .  A
C482        H491   1.046       .  S
C483        C484   1.690       .  A
C483        S487   1.793       .  S
C484        C485   1.690       .  A
C485        C486   1.695       .  A
C485        H492   1.081       .  S
C486        S488   1.798       .  S
S487        H490   1.402       .  S
S488        H489   1.406       .  S
C493        C494   1.413       .  A
C493        C498   1.429       .  A
C494        C495   1.390       .  A
C494        H503   1.067       .  S
C495        C496   1.389       .  A
C495        S499   1.799   1_655  S
C496        C497   1.404       .  A
C497        C498   1.415       .  A
C497        H504   1.083       .  S
C498        S500   1.803       .  S
S499        H502   1.407       .  S
S500        H501   1.406       .  S
C505        C506   1.410       .  A
C505        C510   1.425       .  A
C506        C507   1.409       .  A
C506        H515   1.083       .  S
C507        C508   1.413       .  A
C507        S511   1.795       .  S
C508        C509   1.398       .  A
C509        C510   1.389       .  A
C509        H516   1.085       .  S
C510        S512   1.804       .  S
S511        H514   1.406       .  S
S512        H513   1.383       .  S
C517        C518   1.412       .  A
C517        C522   1.420       .  A
C518        C519   1.422   1_556  A
C518        H527   1.082       .  S
C519        C520   1.415       .  A
C519        S523   1.806       .  S
C520        C521   1.386       .  A
C521        C522   1.374   1_554  A
C521        H528   1.072       .  S
C522        S524   1.796       .  S
S523        H526   1.403       .  S
S524        H525   1.364       .  S
C529        C530   1.406       .  A
C529        C534   1.424       .  A
C530        C531   1.400       .  A
C530        H539   1.082       .  S
C531        C532   1.419       .  A
C531        S535   1.807       .  S
C532        C533   1.391       .  A
C533        C534   1.389       .  A
C533        H540   1.081       .  S
C534        S536   1.811       .  S
S535        H538   1.403       .  S
S536        H537   1.407       .  S
C541        C542   1.410       .  A
C541        C546   1.399       .  A
C542        C543   1.406       .  A
C542        H551   1.079       .  S
C543        C544   1.412       .  A
C543        S547   1.802       .  S
C544        C545   1.409       .  A
C545        C546   1.407       .  A
C545        H552   1.084       .  S
C546        S548   1.800       .  S
S547        H550   1.405       .  S
S548        H549   1.408       .  S
C553        C554   1.402       .  A
C553        C558   1.407       .  A
C554        C555   1.386       .  A
C554        H563   1.085       .  S
C555        C556   1.412       .  A
C555        S559   1.800       .  S
C556        C557   1.408       .  A
C557        C558   1.400       .  A
C557        H564   1.083       .  S
C558        S560   1.801       .  S
S559        H562   1.392       .  S
S560        H561   1.407       .  S
C565        C566   1.400       .  A
C565        C570   1.416       .  A
C566        C567   1.393       .  A
C566        H575   1.078       .  S
C567        C568   1.418       .  A
C567        S571   1.795       .  S
C568        C569   1.408       .  A
C569        C570   1.407       .  A
C569        H576   1.083       .  S
C570        S572   1.805       .  S
S571        H574   1.406       .  S
S572        H573   1.402       .  S
C577        C578   1.413       .  A
C577        C582   1.417       .  A
C578        C579   1.417   1_455  A
C578        H587   1.082       .  S
C579        C580   1.422       .  A
C579        S583   1.806       .  S
C580        C581   1.405       .  A
C581        C582   1.396   1_655  A
C581        H588   1.079       .  S
C582        S584   1.809       .  S
S583        H586   1.403       .  S
S584        H585   1.406   1_455  S
C589        C590   1.389       .  A
C589        C594   1.403       .  A
C590        C591   1.385       .  A
C590        H599   1.074       .  S
C591        C592   1.408       .  A
C591        S595   1.822       .  S
C592        C593   1.411       .  A
C593        C594   1.390       .  A
C593        H600   1.083       .  S
C594        S596   1.804       .  S
S595        H598   1.400       .  S
S596        H597   1.402       .  S
C601        C602   1.420       .  A
C601        C606   1.431       .  A
C602        C603   1.429       .  A
C602        H611   1.083       .  S
C603        C604   1.424       .  A
C603        S607   1.797       .  S
C604        C605   1.415       .  A
C605        C606   1.413       .  A
C605        H612   1.083       .  S
C606        S608   1.817       .  S
S607        H610   1.407       .  S
S608        H609   1.390       .  S
C613        C614   1.405       .  A
C613        C618   1.406       .  A
C614        C615   1.413       .  A
C614        H623   1.083       .  S
C615        C616   1.420       .  A
C615        S619   1.799       .  S
C616        C617   1.417       .  A
C617        C618   1.406       .  A
C617        H624   1.070       .  S
C618        S620   1.794   1_455  S
S619        H622   1.408       .  S
S620        H621   1.404   1_655  S
C625        C626   1.393       .  A
C625        C630   1.426       .  A
C626        C627   1.384       .  A
C626        H635   1.068       .  S
C627        C628   1.409       .  A
C627        S631   1.795       .  S
C628        C629   1.413       .  A
C629        C630   1.424       .  A
C629        H636   1.083       .  S
C630        S632   1.804       .  S
S631        H634   1.407       .  S
S632        H633   1.403       .  S
C637        C638   1.423       .  A
C637        C642   1.404       .  A
C638        C639   1.409   1_556  A
C638        H647   1.066       .  S
C639        C640   1.416       .  A
C639        S643   1.799       .  S
C640        C641   1.412   1_554  A
C641        C642   1.410       .  A
C641        H648   1.063       .  S
C642        S644   1.801       .  S
S643        H646   1.405       .  S
S644        H645   1.407       .  S
C649        C650   1.420       .  A
C649        C654   1.408       .  A
C650        C651   1.424   1_455  A
C650        H659   1.082       .  S
C651        C652   1.420       .  A
C651        S655   1.799       .  S
C652        C653   1.409       .  A
C653        C654   1.387   1_655  A
C653        H660   1.062       .  S
C654        S656   1.799       .  S
S655        H658   1.404       .  S
S656        H657   1.390       .  S
C661        C662   1.417       .  A
C661        C666   1.425       .  A
C662        C663   1.399       .  A
C662        H671   1.060       .  S
C663        C664   1.404       .  A
C663        S667   1.802       .  S
C664        C665   1.405       .  A
C665        C666   1.414       .  A
C665        H672   1.083       .  S
C666        S668   1.803       .  S
S667        H670   1.403       .  S
S668        H669   1.407       .  S
C673        C674   1.394       .  A
C673        C678   1.413       .  A
C674        C675   1.390       .  A
C674        H683   1.081       .  S
C675        C676   1.418       .  A
C675        S679   1.802       .  S
C676        C677   1.402       .  A
C677        C678   1.394       .  A
C677        H684   1.084       .  S
C678        S680   1.792       .  S
S679        H682   1.409       .  S
S680        H681   1.389       .  S
C685        C686   1.406       .  A
C685        C690   1.413       .  A
C686        C687   1.410       .  A
C686        H695   1.083       .  S
C687        C688   1.425       .  A
C687        S691   1.797       .  S
C688        C689   1.398       .  A
C689        C690   1.391       .  A
C689        H696   1.080       .  S
C690        S692   1.777       .  S
S691        H694   1.407       .  S
S692        H693   1.400       .  S
C697        C698   1.418       .  A
C697        C702   1.429       .  A
C698        C699   1.408       .  A
C698        H707   1.077       .  S
C699        C700   1.406       .  A
C699        S703   1.802       .  S
C700        C701   1.389       .  A
C701        C702   1.405       .  A
C701        H708   1.083       .  S
C702        S704   1.779       .  S
S703        H706   1.406       .  S
S704        H705   1.410   1_556  S
C709        C710   1.405       .  A
C709        C714   1.406       .  A
C710        C711   1.406       .  A
C710        H719   1.083       .  S
C711        C712   1.418       .  A
C711        S715   1.800       .  S
C712        C713   1.385       .  A
C713        C714   1.379       .  A
C713        H720   1.063       .  S
C714        S716   1.797       .  S
S715        H718   1.407       .  S
S716        H717   1.375       .  S
C721        C722   1.418       .  A
C721        C726   1.420       .  A
C722        C723   1.423       .  A
C722        H731   1.083       .  S
C723        C724   1.419       .  A
C723        S727   1.796       .  S
C724        C725   1.400       .  A
C725        C726   1.383       .  A
C725        H732   1.082       .  S
C726        S728   1.779       .  S
S727        H730   1.407       .  S
S728        H729   1.354       .  S
C733        C734   1.410       .  A
C733        C738   1.416       .  A
C734        C735   1.424       .  A
C734        H743   1.083       .  S
C735        C736   1.424       .  A
C735        S739   1.800       .  S
C736        C737   1.401       .  A
C737        C738   1.389       .  A
C737        H744   1.081       .  S
C738        S740   1.798       .  S
S739        H742   1.403       .  S
S740        H741   1.400       .  S
C745        C746   1.403       .  A
C745        C750   1.413       .  A
C746        C747   1.382       .  A
C746        H755   1.051       .  S
C747        C748   1.397       .  A
C747        S751   1.810   1_554  S
C748        C749   1.412       .  A
C749        C750   1.410       .  A
C749        H756   1.083       .  S
C750        S752   1.804       .  S
S751        H754   1.407   1_556  S
S752        H753   1.404       .  S
C757        C758   1.402       .  A
C757        C762   1.424       .  A
C758        C759   1.411   1_554  A
C758        H767   1.084       .  S
C759        C760   1.435       .  A
C759        S763   1.805       .  S
C760        C761   1.389       .  A
C761        C762   1.381   1_556  A
C761        H768   1.069       .  S
C762        S764   1.826       .  S
S763        H766   1.405       .  S
S764        H765   1.394       .  S
C769        C770   1.397       .  A
C769        C774   1.421       .  A
C770        C771   1.393       .  A
C770        H779   1.075       .  S
C771        C772   1.427       .  A
C771        S775   1.795       .  S
C772        C773   1.409       .  A
C773        C774   1.417       .  A
C773        H780   1.083       .  S
C774        S776   1.802       .  S
S775        H778   1.379       .  S
S776        H777   1.404       .  S
C781        C782   1.411       .  A
C781        C786   1.417       .  A
C782        C783   1.390       .  A
C782        H791   1.083       .  S
C783        C784   1.405       .  A
C783        S787   1.806       .  S
C784        C785   1.393       .  A
C785        C786   1.379       .  A
C785        H792   1.075       .  S
C786        S788   1.818       .  S
S787        H790   1.403       .  S
S788        H789   1.390       .  S
C793        C794   1.713       .  A
C793        C798   1.705       .  A
C794        C795   1.724       .  A
C794        H803   1.082       .  S
C795        C796   1.726       .  A
C795        S799   1.793       .  S
C796        C797   1.658       .  A
C797        C798   1.646       .  A
C797        H804   1.060       .  S
C798        S800   1.812       .  S
S799        H802   1.404       .  S
S800        H801   1.405       .  S
C805        C806   1.431       .  A
C805        C810   1.436       .  A
C806        C807   1.425       .  A
C806        H815   1.080       .  S
C807        C808   1.414       .  A
C807        S811   1.804       .  S
C808        C809   1.369       .  A
C809        C810   1.376       .  A
C809        H816   1.089       .  S
C810        S812   1.780       .  S
S811        H814   1.400       .  S
S812        H813   2.880       .  S
C817        C818   1.387       .  A
C817        C822   1.416       .  A
C818        C819   1.378   1_565  A
C818        H827   1.077       .  S
C819        C820   1.421       .  A
C819        S823   1.796       .  S
C820        C821   1.412       .  A
C821        C822   1.416   1_545  A
C821        H828   1.081       .  S
C822        S824   1.798       .  S
S823        H826   1.372       .  S
S824        H825   1.405       .  S
C829        C830   1.388       .  A
C829        C834   1.424       .  A
C830        C831   1.388       .  A
C830        H839   1.063       .  S
C831        C832   1.420       .  A
C831        S835   1.811       .  S
C832        C833   1.415       .  A
C833        C834   1.425       .  A
C833        H840   1.083       .  S
C834        S836   1.806       .  S
S835        H838   1.385       .  S
S836        H837   1.403       .  S
C841        C842   1.411       .  A
C841        C846   1.407       .  A
C842        C843   1.406       .  A
C842        H851   1.083       .  S
C843        C844   1.411       .  A
C843        S847   1.798       .  S
C844        C845   1.394       .  A
C845        C846   1.390       .  A
C845        H852   1.061       .  S
C846        S848   1.815       .  S
S847        H850   1.404       .  S
S848        H849   1.396       .  S
C853        C854   1.399       .  A
C853        C858   1.424       .  A
C854        C855   1.383       .  A
C854        H863   1.052       .  S
C855        C856   1.408       .  A
C855        S859   1.808       .  S
C856        C857   1.422       .  A
C857        C858   1.437       .  A
C857        H864   1.082       .  S
C858        S860   1.799       .  S
S859        H862   1.408       .  S
S860        H861   1.407       .  S
C865        C866   1.401       .  A
C865        C870   1.413       .  A
C866        C867   1.387       .  A
C866        H875   1.084       .  S
C867        C868   1.423       .  A
C867        S871   1.820       .  S
C868        C869   1.400       .  A
C869        C870   1.397       .  A
C869        H876   1.084       .  S
C870        S872   1.800       .  S
S871        H874   1.394       .  S
S872        H873   1.408       .  S
C877        C878   1.392       .  A
C877        C882   1.438       .  A
C878        C879   1.387   1_545  A
C878        H887   1.075       .  S
C879        C880   1.384       .  A
C879        S883   1.813       .  S
C880        C881   1.432       .  A
C881        C882   1.446   1_565  A
C881        H888   1.081       .  S
C882        S884   1.794       .  S
S883        H886   1.409       .  S
S884        H885   1.407       .  S
C889        C890   1.393       .  A
C889        C894   1.435       .  A
C890        C891   1.386   1_554  A
C890        H899   1.072       .  S
C891        C892   1.415       .  A
C891        S895   1.783       .  S
C892        C893   1.436       .  A
C893        C894   1.443   1_556  A
C893        H900   1.074       .  S
C894        S896   1.798       .  S
S895        H898   1.399       .  S
S896        H897   1.407       .  S
C901        C902   1.416       .  A
C901        C906   1.431       .  A
C902        C903   1.425       .  A
C902        H911   1.083       .  S
C903        C904   1.419       .  A
C903        S907   1.794       .  S
C904        C905   1.392       .  A
C905        C906   1.384       .  A
C905        H912   1.082       .  S
C906        S908   1.784       .  S
S907        H910   1.406       .  S
S908        H909   1.408   1_655  S
C913        C914   1.397       .  A
C913        C918   1.411       .  A
C914        C915   1.376       .  A
C914        H923   1.082       .  S
C915        C916   1.407       .  A
C915        S919   1.799       .  S
C916        C917   1.408       .  A
C917        C918   1.396       .  A
C917        H924   1.084       .  S
C918        S920   1.803       .  S
S919        H922   1.403   1_565  S
S920        H921   1.404       .  S
C925        C926   1.409       .  A
C925        C930   1.418       .  A
C926        C927   1.408       .  A
C926        H935   1.082       .  S
C927        C928   1.416       .  A
C927        S931   1.813       .  S
C928        C929   1.392       .  A
C929        C930   1.381       .  A
C929        H936   1.082       .  S
C930        S932   1.804       .  S
S931        H934   1.406       .  S
S932        H933   1.397       .  S
C937        C938   1.422       .  A
C937        C942   1.426       .  A
C938        C939   1.424       .  A
C938        H947   1.066       .  S
C939        C940   1.411       .  A
C939        S943   1.807       .  S
C940        C941   1.406       .  A
C941        C942   1.420       .  A
C941        H948   1.083       .  S
C942        S944   1.798       .  S
S943        H946   1.407       .  S
S944        H945   1.408       .  S
C949        C950   1.406       .  A
C949        C954   1.406       .  A
C950        C951   1.406       .  A
C950        H959   1.084       .  S
C951        C952   1.421       .  A
C951        S955   1.799       .  S
C952        C953   1.410       .  A
C953        C954   1.399       .  A
C953        H960   1.080       .  S
C954        S956   1.801       .  S
S955        H958   1.408       .  S
S956        H957   1.405       .  S
C961        C962   1.411       .  A
C961        C966   1.418       .  A
C962        C963   1.409       .  A
C962        H971   1.073       .  S
C963        C964   1.410       .  A
C963        S967   1.794       .  S
C964        C965   1.407       .  A
C965        C966   1.422       .  A
C965        H972   1.082       .  S
C966        S968   1.799       .  S
S967        H970   1.400       .  S
S968        H969   1.408       .  S
C973        C974   1.403       .  A
C973        C978   1.428       .  A
C974        C975   1.404       .  A
C974        H983   1.083       .  S
C975        C976   1.422       .  A
C975        S979   1.786       .  S
C976        C977   1.413       .  A
C977        C978   1.432       .  A
C977        H984   1.083       .  S
C978        S980   1.798       .  S
S979        H982   1.401       .  S
S980        H981   1.405       .  S
C985        C986   1.393       .  A
C985        C990   1.413       .  A
C986        C987   1.387       .  A
C986        H995   1.084       .  S
C987        C988   1.412       .  A
C987        S991   1.788       .  S
C988        C989   1.405       .  A
C989        C990   1.394       .  A
C989        H996   1.084       .  S
C990        S992   1.808       .  S
S991        H994   1.407       .  S
S992        H993   1.404       .  S
C997        C998   1.412       .  A
C997       C1002   1.439       .  A
C998        C999   1.414   1_545  A
C998       H1007   1.078       .  S
C999       C1000   1.408       .  A
C999       S1003   1.809       .  S
C1000      C1001   1.424       .  A
C1001      C1002   1.428   1_565  A
C1001      H1008   1.054       .  S
C1002      S1004   1.801       .  S
S1003      H1006   1.409       .  S
S1004      H1005   1.399       .  S
C1009      C1010   1.408       .  A
C1009      C1014   1.429       .  A
C1010      C1011   1.398       .  A
C1010      H1019   1.083       .  S
C1011      C1012   1.410       .  A
C1011      S1015   1.806       .  S
C1012      C1013   1.393       .  A
C1013      C1014   1.394       .  A
C1013      H1020   1.085       .  S
C1014      S1016   1.807       .  S
S1015      H1018   1.403       .  S
S1016      H1017   1.390       .  S
C1021      C1022   1.397       .  A
C1021      C1026   1.425       .  A
C1022      C1023   1.397       .  A
C1022      H1031   1.085       .  S
C1023      C1024   1.422       .  A
C1023      S1027   1.778       .  S
C1024      C1025   1.415       .  A
C1025      C1026   1.430       .  A
C1025      H1032   1.083       .  S
C1026      S1028   1.800       .  S
S1027      H1030   1.398       .  S
S1028      H1029   1.405       .  S
C1033      C1034   1.401       .  A
C1033      C1038   1.423       .  A
C1034      C1035   1.391       .  A
C1034      H1043   1.075       .  S
C1035      C1036   1.407       .  A
C1035      S1039   1.796       .  S
C1036      C1037   1.407       .  A
C1037      C1038   1.413       .  A
C1037      H1044   1.083       .  S
C1038      S1040   1.808       .  S
S1039      H1042   1.404       .  S
S1040      H1041   1.407       .  S
C1045      C1046   1.409       .  A
C1045      C1050   1.412       .  A
C1046      C1047   1.410       .  A
C1046      H1055   1.077       .  S
C1047      C1048   1.414       .  A
C1047      S1051   1.793       .  S
C1048      C1049   1.394       .  A
C1049      C1050   1.396       .  A
C1049      H1056   1.078       .  S
C1050      S1052   1.799       .  S
S1051      H1054   1.400       .  S
S1052      H1053   1.408       .  S
C1057      C1058   1.418       .  A
C1057      C1062   1.419       .  A
C1058      C1059   1.412   1_455  A
C1058      H1067   1.068       .  S
C1059      C1060   1.414       .  A
C1059      S1063   1.808       .  S
C1060      C1061   1.421       .  A
C1061      C1062   1.416   1_655  A
C1061      H1068   1.072       .  S
C1062      S1064   1.805       .  S
S1063      H1066   1.408       .  S
S1064      H1065   1.409       .  S
C1069      C1070   1.422       .  A
C1069      C1074   1.419       .  A
C1070      C1071   1.413       .  A
C1070      H1079   1.060       .  S
C1071      C1072   1.409       .  A
C1071      S1075   1.803       .  S
C1072      C1073   1.379       .  A
C1073      C1074   1.391       .  A
C1073      H1080   1.087       .  S
C1074      S1076   1.752       .  S
S1075      H1078   1.399   1_455  S
S1076      H1077   2.912       .  S
C1081      C1082   1.721       .  A
C1081      C1086   1.659       .  A
C1082      C1083   1.711       .  A
C1082      H1091   1.081       .  S
C1083      C1084   1.710       .  A
C1083      S1087   1.791       .  S
C1084      C1085   1.665       .  A
C1085      C1086   1.631       .  A
C1085      H1092   1.080       .  S
C1086      S1088   1.781       .  S
S1087      H1090   1.405       .  S
S1088      H1089   1.404       .  S
C1093      C1094   1.662       .  A
C1093      C1098   1.690       .  A
C1094      C1095   1.641       .  A
C1094      H1103   1.083       .  S
C1095      C1096   1.719       .  A
C1095      S1099   1.768       .  S
C1096      C1097   1.720       .  A
C1097      C1098   1.691       .  A
C1097      H1104   1.082       .  S
C1098      S1100   1.792       .  S
S1099      H1102   1.391       .  S
S1100      H1101   1.405       .  S
C1105      C1106   1.401       .  A
C1105      C1110   1.513       .  A
C1106      C1107   1.381       .  A
C1106      H1115   1.084       .  S
C1107      C1108   1.401       .  A
C1107      S1111   1.806       .  S
C1108      C1109   1.416       .  A
C1109      C1110   1.466       .  A
C1109      H1116   1.077       .  S
C1110      S1112   3.425       .  S
S1111      H1114   1.402       .  S
S1112      H1113   1.413       .  S
C1117      C1118   1.408       .  A
C1117      C1122   1.415       .  A
C1118      C1119   1.415   1_565  A
C1118      H1127   1.076       .  S
C1119      C1120   1.420       .  A
C1119      S1123   1.797       .  S
C1120      C1121   1.398       .  A
C1121      C1122   1.399   1_545  A
C1121      H1128   1.069       .  S
C1122      S1124   1.793       .  S
S1123      H1126   1.401       .  S
S1124      H1125   1.405       .  S
C1129      C1130   1.385       .  A
C1129      C1134   1.419       .  A
C1130      C1131   1.392   1_455  A
C1130      H1139   1.070       .  S
C1131      C1132   1.404       .  A
C1131      S1135   1.823       .  S
C1132      C1133   1.414       .  A
C1133      C1134   1.420   1_655  A
C1133      H1140   1.082       .  S
C1134      S1136   1.806       .  S
S1135      H1138   1.406       .  S
S1136      H1137   1.406       .  S
