geometry optimzed in LAMMPS
_audit_creation_date              2020-11-30 
_audit_creation_method            'lammps2cif' 
_symmetry_space_group_name_H-M    'P1' 
_symmetry_Int_Tables_number       1 
_symmetry_cell_setting            triclinic 
loop_ 
_symmetry_equiv_pos_as_xyz 
  x,y,z 
_cell_length_a                    25.765639925045484 
_cell_length_b                    25.694764608524185 
_cell_length_c                    25.821543706116593 
_cell_angle_alpha                 90.06409883305153 
_cell_angle_beta                  90.13436389014483 
_cell_angle_gamma                 89.93952837051884 
loop_ 
_atom_site_label 
_atom_site_type_symbol 
_atom_site_fract_x 
_atom_site_fract_y 
_atom_site_fract_z 
_atom_site_charge 
C1          C  0.11669212  0.12318204  0.12494828    -0.02000
C2          C  0.86774509  0.11718951  0.86268813    -0.02000
C3          C  0.85767023  0.86145831  0.12079653    -0.02000
C4          C  0.12279585  0.85277455  0.85951682    -0.02000
C5          C  0.99828305  0.98374261  0.99594113    -0.02000
C6          C  0.74230398  0.74698097  0.47510698     0.03620
C7          C  0.72794163  0.79805120  0.46127443    -0.12530
C8          C  0.76522741  0.83640847  0.45870557     0.01120
C9          C  0.81873771  0.81946376  0.45832940    -0.11060
C10         C  0.83441315  0.76592174  0.46521828     0.03610
C11         C  0.79492591  0.73055593  0.47423139    -0.10480
H12         H  0.68746989  0.80934712  0.45980763     0.09200
H13         H  0.84872057  0.84875237  0.45544067     0.06730
H14         H  0.80588080  0.69176801  0.48637997     0.06580
C15         C  0.48584793  0.74232401  0.74322412     0.03620
C16         C  0.48072035  0.79443025  0.72698320    -0.12530
C17         C  0.47175752  0.83347890  0.76290146     0.01120
C18         C  0.46509622  0.81696408  0.81619586    -0.11060
C19         C  0.46898418  0.76321139  0.83304381     0.03610
C20         C  0.47835107  0.72653611  0.79482601    -0.10480
H21         H  0.49026167  0.80497584  0.68748307     0.09200
H22         H  0.45967010  0.84671050  0.84537772     0.06730
H23         H  0.48597496  0.68653588  0.80585095     0.06580
C24         C  0.49070597  0.74542773  0.23771702     0.03620
C25         C  0.49924162  0.79712022  0.25297277    -0.12530
C26         C  0.50841931  0.83481292  0.21616639     0.01120
C27         C  0.51334960  0.81726661  0.16305545    -0.11060
C28         C  0.50675011  0.76350488  0.14712360     0.03610
C29         C  0.49598013  0.72812903  0.18618735    -0.10480
H30         H  0.49143420  0.80886175  0.29257369     0.09200
H31         H  0.51928321  0.84634767  0.13338715     0.06730
H32         H  0.48581867  0.68845600  0.17608020     0.06580
C33         C  0.74376632  0.49405791  0.23122965     0.03620
C34         C  0.79528424  0.50153260  0.24799512    -0.12530
C35         C  0.83311687  0.51621678  0.21346597     0.01120
C36         C  0.81683871  0.52388157  0.16032215    -0.11060
C37         C  0.76380532  0.51700164  0.14300156     0.03610
C38         C  0.72752102  0.50552487  0.18046122    -0.10480
H39         H  0.80750453  0.48913232  0.28620721     0.09200
H40         H  0.84627931  0.53174818  0.13156066     0.06730
H41         H  0.68778907  0.49800896  0.16873758     0.06580
O42         O  0.40809838  0.77416422  0.00400871    -0.73940
O43         O  0.56327173  0.77608858  0.97696692    -0.73970
O44         O  0.47272949  0.78809719  0.91973462    -0.74020
O45         O  0.49846815  0.78809512  0.06090659    -0.74070
O46         O  0.49746193  0.70243424  0.06839083    -0.74000
O47         O  0.47695055  0.70253265  0.91187620    -0.73980
O48         O  0.55785556  0.69024108  0.98008985    -0.73960
O49         O  0.41619228  0.68859753  0.00001311    -0.74020
Ni50       Ni  0.48555406  0.78478160  0.99038110     1.25410
Ni51       Ni  0.48705523  0.69278219  0.99009061     1.25360
C52         C  0.38749622  0.72734779  0.00658510     0.88240
C53         C  0.58529906  0.72987175  0.97418891     0.88170
C54         C  0.47224686  0.74899777  0.89073848     0.88200
C55         C  0.50136233  0.74896747  0.08963124     0.88370
O56         O  0.70419123  0.50520405  0.06458505    -0.73940
O57         O  0.70448243  0.47727041  0.91014191    -0.73970
O58         O  0.69325653  0.42031172  0.00062519    -0.74020
O59         O  0.69014394  0.56148155  0.97398344    -0.74070
O60         O  0.77553161  0.57020173  0.97349859    -0.74000
O61         O  0.77888788  0.41455069  0.00114756    -0.73980
O62         O  0.79007475  0.47903935  0.91720594    -0.73960
O63         O  0.78976338  0.50629271  0.05770765    -0.74020
Ni64       Ni  0.69488894  0.49097831  0.98734690     1.25410
Ni65       Ni  0.78673995  0.49259240  0.98741170     1.25360
C66         C  0.75042805  0.51023570  0.08580110     0.88240
C67         C  0.75082081  0.47391519  0.88904379     0.88170
C68         C  0.73294197  0.39248903  0.00499423     0.88200
C69         C  0.72875577  0.59061411  0.96949412     0.88370
C70         C  0.73224835  0.73728642  0.98510075     0.03620
C71         C  0.74948165  0.68680911  0.97244240    -0.12530
C72         C  0.71372740  0.64787289  0.96324919     0.01120
C73         C  0.65994769  0.66374874  0.95899665    -0.11060
C74         C  0.64259025  0.71677301  0.96684435     0.03610
C75         C  0.68019524  0.75291249  0.97899188    -0.10480
H76         H  0.78986872  0.67631275  0.97808545     0.09200
H77         H  0.63090016  0.63397327  0.95285298     0.06730
H78         H  0.66780029  0.79139472  0.99097753     0.06580
C79         C  0.74569376  0.49070249  0.74301729     0.03620
C80         C  0.72934988  0.48312715  0.79447148    -0.12530
C81         C  0.76432543  0.46772117  0.83193740     0.01120
C82         C  0.81709392  0.45875807  0.81521843    -0.11060
C83         C  0.83398155  0.46529665  0.76221107     0.03610
C84         C  0.79612073  0.47769915  0.72631571    -0.10480
H85         H  0.69118889  0.49577866  0.80679062     0.09200
H86         H  0.84604263  0.45019082  0.84443347     0.06730
H87         H  0.80741822  0.48430845  0.68645626     0.06580
C88         C  0.23692361  0.74334691  0.50582032     0.03620
C89         C  0.25269775  0.79552197  0.51130342    -0.12530
C90         C  0.21641167  0.83407681  0.51934087     0.01120
C91         C  0.16292943  0.81779556  0.52417464    -0.11060
C92         C  0.14642054  0.76416060  0.52040913     0.03610
C93         C  0.18528669  0.72734068  0.51521808    -0.10480
H94         H  0.29173340  0.80729030  0.50121088     0.09200
H95         H  0.13341772  0.84757667  0.52758331     0.06730
H96         H  0.17440738  0.68700204  0.50936476     0.06580
O97         O  0.97566472  0.77697966  0.56949834    -0.73940
O98         O  0.00555468  0.77839391  0.41516182    -0.73970
O99         O  0.92022374  0.79060641  0.47827574    -0.74020
O100        O  0.06095798  0.78977681  0.50689804    -0.74070
O101        O  0.06783729  0.70401518  0.50703555    -0.74000
O102        O  0.91275622  0.70491740  0.47691790    -0.73980
O103        O  0.00463215  0.69258929  0.42138125    -0.73960
O104        O  0.97604767  0.69124281  0.56174216    -0.74020
Ni105      Ni  0.99061208  0.78705997  0.49247073     1.25410
Ni106      Ni  0.99032019  0.69503347  0.49167205     1.25360
C107        C  0.97119291  0.73039808  0.59022085     0.88240
C108        C  0.00976136  0.73215113  0.39353176     0.88170
C109        C  0.89166342  0.75150546  0.47322594     0.88200
C110        C  0.08915123  0.75035684  0.51188858     0.88370
O111        O  0.97358959  0.56748041  0.77724874    -0.73940
O112        O  0.00592052  0.41265251  0.77688669    -0.73970
O113        O  0.05925687  0.50527250  0.79148400    -0.74020
O114        O  0.91947349  0.47449251  0.78851510    -0.74070
O115        O  0.91304750  0.47650425  0.70313324    -0.74000
O116        O  0.06807171  0.50415940  0.70629753    -0.73980
O117        O  0.00426768  0.41994727  0.69158169    -0.73960
O118        O  0.97739526  0.56094272  0.69194889    -0.74020
Ni119      Ni  0.98945465  0.48996189  0.78669089     1.25410
Ni120      Ni  0.99073955  0.49041018  0.69507619     1.25360
C121        C  0.97073866  0.58896839  0.73101309     0.88240
C122        C  0.01028002  0.39165269  0.73052404     0.88170
C123        C  0.08833786  0.50877943  0.75297006     0.88200
C124        C  0.89146000  0.47121625  0.74900717     0.88370
C125        C  0.97756165  0.73675116  0.73717128     0.03620
C126        C  0.97076824  0.68500929  0.75337141    -0.12530
C127        C  0.96281170  0.64626863  0.71707999     0.01120
C128        C  0.95807965  0.66275947  0.66362379    -0.11060
C129        C  0.96328691  0.71636298  0.64715304     0.03610
C130        C  0.97111856  0.75289917  0.68563195    -0.10480
H131        H  0.97965060  0.67422864  0.79302205     0.09200
H132        H  0.95379999  0.63312441  0.63412377     0.06730
H133        H  0.98015100  0.79266625  0.67487075     0.06580
C134        C  0.23490117  0.49710603  0.74865067     0.03620
C135        C  0.18374769  0.50530659  0.73200943    -0.12530
C136        C  0.14535816  0.51471934  0.76789403     0.01120
C137        C  0.16166271  0.51930180  0.82150599    -0.11060
C138        C  0.21498427  0.51265368  0.83835748     0.03610
C139        C  0.25112322  0.50290091  0.80020340    -0.10480
H140        H  0.17303968  0.49718650  0.69215050     0.09200
H141        H  0.13213173  0.52469824  0.85075471     0.06730
H142        H  0.29059292  0.49297953  0.81110277     0.06580
C143        C  0.74889499  0.23881143  0.49015899     0.03620
C144        C  0.79992328  0.25478127  0.50002296    -0.12530
C145        C  0.83725841  0.21829883  0.51203590     0.01120
C146        C  0.81986303  0.16491987  0.51762219    -0.11060
C147        C  0.76653819  0.14879613  0.50946188     0.03610
C148        C  0.73151482  0.18752460  0.49710027    -0.10480
H149        H  0.81172067  0.29426519  0.49102082     0.09200
H150        H  0.84869906  0.13513024  0.52484564     0.06730
H151        H  0.69227653  0.17700185  0.48597898     0.06580
O152        O  0.77611092  0.00608127  0.40506342    -0.73940
O153        O  0.77901718  0.97909976  0.56034463    -0.73970
O154        O  0.79028635  0.92218141  0.46952230    -0.74020
O155        O  0.79115533  0.06321246  0.49570349    -0.74070
O156        O  0.70568250  0.07055580  0.49857315    -0.74000
O157        O  0.70478789  0.91507624  0.46974577    -0.73980
O158        O  0.69340593  0.97915361  0.55443263    -0.73960
O159        O  0.69084145  0.00649327  0.41413662    -0.74020
Ni160      Ni  0.78730429  0.99266164  0.48258304     1.25410
Ni161      Ni  0.69552562  0.99285204  0.48423990     1.25360
C162        C  0.72925778  0.01021972  0.38484321     0.88240
C163        C  0.73301158  0.97500095  0.58221428     0.88170
C164        C  0.75112037  0.89380941  0.46531023     0.88200
C165        C  0.75220324  0.09160013  0.50183514     0.88370
O166        O  0.41763042  0.00242493  0.77732684    -0.73940
O167        O  0.57391953  0.97950264  0.77309193    -0.73970
O168        O  0.50681673  0.06171885  0.78819225    -0.74020
O169        O  0.48502452  0.91947329  0.78801029    -0.74070
O170        O  0.48120814  0.91293090  0.70273939    -0.74000
O171        O  0.50561997  0.06971925  0.70301970    -0.73980
O172        O  0.56426842  0.97963752  0.68801629    -0.73960
O173        O  0.42279104  0.00340266  0.69189918    -0.74020
Ni174      Ni  0.49598476  0.99070628  0.78477411     1.25410
Ni175      Ni  0.49346437  0.99137178  0.69328438     1.25360
C176        C  0.39526367  0.00692004  0.73160255     0.88240
C177        C  0.59401431  0.97626736  0.72627938     0.88170
C178        C  0.50965371  0.09077044  0.74942870     0.88200
C179        C  0.47896131  0.89119106  0.74894666     0.88370
C180        C  0.74292476  0.98434578  0.72920874     0.03620
C181        C  0.75742072  0.97498746  0.67740720    -0.12530
C182        C  0.71989508  0.96860754  0.63967322     0.01120
C183        C  0.66663724  0.96500190  0.65722542    -0.11060
C184        C  0.65130056  0.97089218  0.71082247     0.03610
C185        C  0.69078061  0.98065812  0.74590194    -0.10480
H186        H  0.79753368  0.97954995  0.66567305     0.09200
H187        H  0.63643194  0.96039017  0.62841357     0.06730
H188        H  0.68011614  0.99123729  0.78506418     0.06580
C189        C  0.50392817  0.24046834  0.74714581     0.03620
C190        C  0.50669353  0.18837142  0.72952222    -0.12530
C191        C  0.51584381  0.14828843  0.76440815     0.01120
C192        C  0.52190877  0.16336494  0.81816881    -0.11060
C193        C  0.51991307  0.21668337  0.83591975     0.03610
C194        C  0.51598954  0.25456340  0.79841812    -0.10480
H195        H  0.49569980  0.17866709  0.69014594     0.09200
H196        H  0.52535122  0.13305856  0.84702535     0.06730
H197        H  0.51338235  0.29495906  0.81035498     0.06580
O198        O  0.20411905  0.40764900  0.97894290    -0.73940
O199        O  0.20187454  0.56293418  0.00894316    -0.73970
O200        O  0.18977904  0.49960554  0.92347657    -0.74020
O201        O  0.18999010  0.47081137  0.06330200    -0.74070
O202        O  0.27547240  0.47186131  0.07102293    -0.74000
O203        O  0.27530460  0.50093191  0.91651235    -0.73980
O204        O  0.28742322  0.55658912  0.00771659    -0.73960
O205        O  0.28950715  0.41613258  0.97992653    -0.74020
Ni206      Ni  0.19324940  0.48520623  0.99353958     1.25410
Ni207      Ni  0.28507080  0.48638002  0.99376309     1.25360
C208        C  0.25086622  0.38712093  0.97532140     0.88240
C209        C  0.24807008  0.58448400  0.01327447     0.88170
C210        C  0.22889027  0.50492753  0.89537523     0.88200
C211        C  0.22907323  0.46707269  0.09181093     0.88370
C212        C  0.23869430  0.73135643  0.00733066     0.03620
C213        C  0.29115446  0.74796081  0.00887047    -0.12530
C214        C  0.33075452  0.71237632  0.01556105     0.01120
C215        C  0.31544534  0.65866825  0.02118507    -0.11060
C216        C  0.26195585  0.64171176  0.02146990     0.03610
C217        C  0.22452967  0.68017506  0.02078435    -0.10480
H218        H  0.30207624  0.78697010  0.99758031     0.09200
H219        H  0.34562264  0.62939076  0.02245956     0.06730
H220        H  0.18405253  0.66888901  0.02171463     0.06580
O221        O  0.97395459  0.41603725  0.20416838    -0.73940
O222        O  0.00351617  0.57144538  0.20437519    -0.73970
O223        O  0.05930653  0.47939826  0.19201090    -0.74020
O224        O  0.91917208  0.50793404  0.18972724    -0.74070
O225        O  0.91066570  0.50660912  0.27494088    -0.74000
O226        O  0.06600087  0.48013071  0.27738761    -0.73980
O227        O  0.00069172  0.56414171  0.28961468    -0.73960
O228        O  0.97556578  0.42334634  0.28946893    -0.74020
Ni229      Ni  0.98911300  0.49370153  0.19436832     1.25410
Ni230      Ni  0.98822030  0.49365335  0.28600462     1.25360
C231        C  0.96995725  0.39501453  0.25055419     0.88240
C232        C  0.00631465  0.59259196  0.25082846     0.88170
C233        C  0.08739980  0.47524540  0.23134152     0.88200
C234        C  0.89020832  0.51105002  0.22831512     0.88370
C235        C  0.99987722  0.74155885  0.24662602     0.03620
C236        C  0.01199418  0.75630994  0.29807337    -0.12530
C237        C  0.01714521  0.71884522  0.33615328     0.01120
C238        C  0.02011691  0.66545143  0.31889042    -0.11060
C239        C  0.01349485  0.64981794  0.26551198     0.03610
C240        C  0.00286469  0.68893688  0.23046260    -0.10480
H241        H  0.01036536  0.79674278  0.30980773     0.09200
H242        H  0.02452403  0.63536216  0.34785336     0.06730
H243        H  0.99035143  0.67708396  0.19225362     0.06580
C244        C  0.23550316  0.48230641  0.23736487     0.03620
C245        C  0.25140490  0.46801376  0.18719573    -0.12530
C246        C  0.21475819  0.46104218  0.14882381     0.01120
C247        C  0.16110377  0.45863900  0.16507666    -0.11060
C248        C  0.14461540  0.46729372  0.21785871     0.03610
C249        C  0.18310482  0.47905145  0.25318660    -0.10480
H250        H  0.29197046  0.47013965  0.17643328     0.09200
H251        H  0.13154062  0.45323430  0.13573712     0.06730
H252        H  0.17128562  0.49212588  0.29126328     0.06580
O253        O  0.41668651  0.20263364  0.97811701    -0.73940
O254        O  0.57173959  0.20449669  0.00433159    -0.73970
O255        O  0.48203266  0.19197502  0.06209171    -0.74020
O256        O  0.50692019  0.19078311  0.92106623    -0.74070
O257        O  0.50839236  0.27660087  0.91426662    -0.74000
O258        O  0.47853702  0.27771301  0.06854123    -0.73980
O259        O  0.56364031  0.29023856  0.00565270    -0.73960
O260        O  0.42281121  0.28848977  0.97677884    -0.74020
Ni261      Ni  0.49435730  0.19434112  0.99150634     1.25410
Ni262      Ni  0.49329589  0.28642723  0.99129486     1.25360
C263        C  0.39492324  0.24870942  0.97308049     0.88240
C264        C  0.59245917  0.25106386  0.00873539     0.88170
C265        C  0.47576774  0.23139737  0.09004274     0.88200
C266        C  0.51231199  0.23013686  0.89304205     0.88370
C267        C  0.73869128  0.24435949  0.99299309     0.03620
C268        C  0.75534526  0.29622689  0.99925835    -0.12530
C269        C  0.71980513  0.33479377  0.01153373     0.01120
C270        C  0.66674051  0.31818293  0.01951618    -0.11060
C271        C  0.64978473  0.26485687  0.01379863     0.03610
C272        C  0.68745695  0.22845023  0.00242273    -0.10480
H273        H  0.79445184  0.30722488  0.98841642     0.09200
H274        H  0.63761036  0.34762285  0.02688940     0.06730
H275        H  0.67600901  0.18862218  0.99443996     0.06580
O276        O  0.49932799  0.91387313  0.27588159    -0.73940
O277        O  0.47133062  0.06933687  0.27645387    -0.73970
O278        O  0.41525523  0.97824222  0.29000377    -0.74020
O279        O  0.55613000  0.00503071  0.28745925    -0.74070
O280        O  0.56141452  0.00476176  0.20196741    -0.74000
O281        O  0.40618497  0.97827414  0.20480472    -0.73980
O282        O  0.47086929  0.06188008  0.19114605    -0.73960
O283        O  0.49644770  0.92053172  0.19050792    -0.74020
Ni284      Ni  0.48559213  0.99160326  0.28560234     1.25410
Ni285      Ni  0.48366618  0.99131166  0.19397416     1.25360
C286        C  0.50207337  0.89236821  0.22963804     0.88240
C287        C  0.46681980  0.09042752  0.23022046     0.88170
C288        C  0.38598918  0.97433969  0.25143130     0.88200
C289        C  0.58359698  0.00920218  0.24775292     0.88370
C290        C  0.73051217  0.00173735  0.23697208     0.03620
C291        C  0.74849651  0.00784379  0.28816299    -0.12530
C292        C  0.71354798  0.01655758  0.32787665     0.01120
C293        C  0.65948778  0.02159327  0.31297459    -0.11060
C294        C  0.64116694  0.01637125  0.26015158     0.03610
C295        C  0.67838033  0.00840092  0.22260942    -0.10480
H296        H  0.78853653  0.99880605  0.29761497     0.09200
H297        H  0.63090231  0.02637370  0.34323782     0.06730
H298        H  0.66620303  0.99984047  0.18326838     0.06580
C299        C  0.47239148  0.23824086  0.23928013     0.03620
C300        C  0.47345613  0.25377973  0.18644360    -0.12530
C301        C  0.46687104  0.21767875  0.14706167     0.01120
C302        C  0.46085725  0.16425897  0.16277195    -0.11060
C303        C  0.46001314  0.14776129  0.21608822     0.03610
C304        C  0.45998708  0.18648485  0.25319683    -0.10480
H305        H  0.48555569  0.29238023  0.17520698     0.09200
H306        H  0.45951616  0.13469350  0.13294782     0.06730
H307        H  0.45727157  0.17506587  0.29342480     0.06580
O308        O  0.27717662  0.91194872  0.50768870    -0.73940
O309        O  0.27775977  0.06699182  0.47888897    -0.73970
O310        O  0.29214539  0.00357361  0.56300337    -0.74020
O311        O  0.28885694  0.97525555  0.42303757    -0.74070
O312        O  0.20314655  0.97693441  0.41728898    -0.74000
O313        O  0.20666759  0.00327958  0.57158053    -0.73980
O314        O  0.19219851  0.06069545  0.48219663    -0.73960
O315        O  0.19166204  0.91973373  0.50717801    -0.74020
Ni316      Ni  0.28720570  0.98940305  0.49308238     1.25410
Ni317      Ni  0.19525924  0.99018758  0.49462781     1.25360
C318        C  0.23066837  0.89114906  0.51181383     0.88240
C319        C  0.23144635  0.08858708  0.47629991     0.88170
C320        C  0.25341824  0.00753351  0.59181017     0.88200
C321        C  0.24900706  0.97200038  0.39550315     0.88370
C322        C  0.24905742  0.98703577  0.73647042     0.03620
C323        C  0.29962011  0.99916634  0.75393496    -0.12530
C324        C  0.33755743  0.01287693  0.71859253     0.01120
C325        C  0.32057367  0.02097352  0.66568969    -0.11060
C326        C  0.26772241  0.01289331  0.64870965     0.03610
C327        C  0.23277867  0.99703288  0.68545421    -0.10480
H328        H  0.31094277  0.99088602  0.79352036     0.09200
H329        H  0.34942273  0.03008628  0.63669323     0.06730
H330        H  0.19469805  0.98508504  0.67218563     0.06580
O331        O  0.97877849  0.20632858  0.41212930    -0.73940
O332        O  0.00631665  0.20437222  0.56728982    -0.73970
O333        O  0.92270816  0.19240779  0.50259975    -0.74020
O334        O  0.06334437  0.19232365  0.47631560    -0.74070
O335        O  0.07136529  0.27794730  0.47652891    -0.74000
O336        O  0.91606117  0.27825105  0.50321511    -0.73980
O337        O  0.00650837  0.29012759  0.56072067    -0.73960
O338        O  0.98083732  0.29200045  0.42000952    -0.74020
Ni339      Ni  0.99292767  0.19569177  0.48952713     1.25410
Ni340      Ni  0.99375646  0.28773968  0.49023791     1.25360
C341        C  0.97509563  0.25308573  0.39145257     0.88240
C342        C  0.01003788  0.25068426  0.58892348     0.88170
C343        C  0.89461652  0.23184970  0.50677020     0.88200
C344        C  0.09209430  0.23130937  0.47190013     0.88370
C345        C  0.00202392  0.24479375  0.73731866     0.03620
C346        C  0.01444985  0.29585163  0.75292304    -0.12530
C347        C  0.01893422  0.33454375  0.71627055     0.01120
C348        C  0.02200107  0.31802316  0.66282143    -0.11060
C349        C  0.01605153  0.26450908  0.64639523     0.03610
C350        C  0.00573662  0.22863711  0.68501852    -0.10480
H351        H  0.01215312  0.30682000  0.79339617     0.09200
H352        H  0.02600335  0.34765878  0.63337405     0.06730
H353        H  0.99447981  0.18967679  0.67359386     0.06580
C354        C  0.23970501  0.23729813  0.48200232     0.03620
C355        C  0.25388291  0.18395553  0.47983524    -0.12530
C356        C  0.21785599  0.14590023  0.46905924     0.01120
C357        C  0.16493364  0.16270673  0.46252987    -0.11060
C358        C  0.14924641  0.21651044  0.46472880     0.03610
C359        C  0.18856980  0.25295492  0.46831606    -0.10480
H360        H  0.29093244  0.16988670  0.49296311     0.09200
H361        H  0.13518206  0.13327102  0.45860050     0.06730
H362        H  0.17749607  0.29340985  0.46624097     0.06580
C363        C  0.97609966  0.24810481  0.24351490     0.03620
C364        C  0.96440131  0.29929463  0.22818117    -0.12530
C365        C  0.96185341  0.33798914  0.26508100     0.01120
C366        C  0.96091434  0.32148198  0.31871636    -0.11060
C367        C  0.96631329  0.26778153  0.33466864     0.03610
C368        C  0.97316737  0.23176151  0.29564503    -0.10480
H369        H  0.96697908  0.31017599  0.18770575     0.09200
H370        H  0.95905320  0.35106086  0.34850522     0.06730
H371        H  0.98380002  0.19245947  0.30654991     0.06580
C372        C  0.23875586  0.98827533  0.25079549     0.03620
C373        C  0.28967523  0.98189535  0.23242101    -0.12530
C374        C  0.32897672  0.96834079  0.26646117     0.01120
C375        C  0.31395257  0.96002771  0.31984544    -0.11060
C376        C  0.26126572  0.96625828  0.33822665     0.03610
C377        C  0.22404976  0.97820952  0.30187537    -0.10480
H378        H  0.29933721  0.99347686  0.19324014     0.09200
H379        H  0.34409835  0.95217699  0.34803162     0.06730
H380        H  0.18484477  0.98698562  0.31446579     0.06580
C381        C  0.24850939  0.23875907  0.98610175     0.03620
C382        C  0.29976805  0.22385777  0.97409224    -0.12530
C383        C  0.33732574  0.26142656  0.96640326     0.01120
C384        C  0.31952559  0.31458813  0.96195720    -0.11060
C385        C  0.26600660  0.32995709  0.96889369     0.03610
C386        C  0.23142448  0.29084272  0.98088189    -0.10480
H387        H  0.31168861  0.18357241  0.97751955     0.09200
H388        H  0.34819234  0.34476369  0.95619904     0.06730
H389        H  0.19265379  0.30220110  0.99242590     0.06580
C390        C  0.36200555  0.36429229  0.62318648    -0.02000
C391        C  0.62011956  0.35885105  0.35579612    -0.02000
C392        C  0.61934271  0.61994964  0.61249756    -0.02000
C393        C  0.35702776  0.62073392  0.36433406    -0.02000
C394        C  0.48942788  0.48693192  0.48569924    -0.02000
C395        C  0.44277600  0.50730134  0.40055732    -0.20820
C396        C  0.44876489  0.51543389  0.45410367    -0.08860
C397        C  0.41258465  0.54738867  0.47973051     0.30000
C398        C  0.37916509  0.57737607  0.45126055    -0.20820
C399        C  0.38494494  0.58041697  0.39710606    -0.08870
C400        C  0.41374301  0.54118338  0.37194133     0.30000
F401        F  0.41641650  0.53755020  0.31953619    -0.19390
H402        H  0.46168675  0.47634427  0.37957452     0.18370
H403        H  0.35028970  0.59874010  0.47265662     0.18380
F404        F  0.41171092  0.55200301  0.53213798    -0.19380
C405        C  0.56730523  0.50048348  0.54139448    -0.20820
C406        C  0.52715481  0.52350172  0.51244383    -0.08860
C407        C  0.52664589  0.57813987  0.50725822     0.30000
C408        C  0.55672714  0.60778987  0.53972942    -0.20820
C409        C  0.59057407  0.58421623  0.57540942    -0.08870
C410        C  0.60007153  0.53024260  0.57073902     0.30000
F411        F  0.64162884  0.50562364  0.59184705    -0.19390
H412        H  0.57261318  0.45868397  0.54221287     0.18370
H413        H  0.55290991  0.64975720  0.53789582     0.18380
F414        F  0.49862778  0.60389104  0.47113827    -0.19380
C415        C  0.55834853  0.36987712  0.42816758    -0.20820
C416        C  0.58521012  0.39372041  0.38745827    -0.08860
C417        C  0.57743160  0.44709097  0.37744956     0.30000
C418        C  0.55103078  0.47655871  0.41266122    -0.20820
C419        C  0.52354233  0.45252290  0.45287169    -0.08870
C420        C  0.53082640  0.39894532  0.46248560     0.30000
F421        F  0.51560870  0.37454358  0.50648385    -0.19390
H422        H  0.56253196  0.32867779  0.43596822     0.18370
H423        H  0.54751654  0.51802908  0.40573522     0.18380
F424        F  0.59175365  0.47067709  0.33270822    -0.19380
C425        C  0.38872856  0.39339982  0.53327806    -0.20820
C426        C  0.39493322  0.39617349  0.58717935    -0.08860
C427        C  0.43309167  0.42933024  0.60862315     0.30000
C428        C  0.46240530  0.46006431  0.57681868    -0.20820
C429        C  0.45782821  0.45501800  0.52287061    -0.08870
C430        C  0.42065055  0.42076892  0.50168315     0.30000
F431        F  0.41565818  0.41313218  0.44984121    -0.19390
H432        H  0.35994008  0.36980200  0.51412575     0.18370
H433        H  0.48753705  0.48802220  0.59533780     0.18380
F434        F  0.43917578  0.43457823  0.66067942    -0.19380
C435        C  0.34769964  0.28319693  0.56772224    -0.20820
C436        C  0.32635025  0.32758548  0.59184271    -0.08860
C437        C  0.27706385  0.34472360  0.57364301     0.30000
C438        C  0.24986433  0.31597794  0.53774514    -0.20820
C439        C  0.27269080  0.27336018  0.51246480    -0.08870
C440        C  0.32422291  0.26068787  0.52509723     0.30000
F441        F  0.35338083  0.22816610  0.49560295    -0.19390
H442        H  0.38468603  0.26738742  0.57789366     0.18370
H443        H  0.21061955  0.32858188  0.53062318     0.18380
F444        F  0.25475381  0.39039121  0.58781315    -0.19380
C445        C  0.54498873  0.35080020  0.29389845    -0.20820
C446        C  0.58017346  0.32521816  0.32749559    -0.08860
C447        C  0.56951981  0.27312129  0.34102283     0.30000
C448        C  0.53200017  0.24579212  0.31439464    -0.20820
C449        C  0.50013828  0.27045712  0.27750455    -0.08870
C450        C  0.50405478  0.32442476  0.27119274     0.30000
F451        F  0.46949589  0.35148626  0.24193849    -0.19390
H452        H  0.54879647  0.39196857  0.28602547     0.18370
H453        H  0.53007981  0.20451480  0.32198934     0.18380
F454        F  0.59283947  0.24826144  0.38109141    -0.19380
C455        C  0.26692894  0.51169691  0.32221624    -0.20820
C456        C  0.27016831  0.51428511  0.26841972    -0.08860
C457        C  0.29952285  0.55385012  0.24482732     0.30000
C458        C  0.32740528  0.58814778  0.27488240    -0.20820
C459        C  0.32284401  0.58731307  0.32911926    -0.08870
C460        C  0.29025647  0.54936387  0.35216213     0.30000
F461        F  0.28262277  0.54749280  0.40413682    -0.19390
H462        H  0.24423243  0.48180006  0.34113096     0.18370
H463        H  0.35261414  0.61443591  0.25451019     0.18380
F464        F  0.29978353  0.56139926  0.19276377    -0.19380
C465        C  0.39660712  0.33060483  0.71130409    -0.20820
C466        C  0.40125823  0.33318926  0.65699997    -0.08860
C467        C  0.44716639  0.31093813  0.63479404     0.30000
C468        C  0.48201742  0.28313599  0.66476737    -0.20820
C469        C  0.47299655  0.27696505  0.71731351    -0.08870
C470        C  0.43016207  0.30111749  0.74056528     0.30000
F471        F  0.41879342  0.29439602  0.79150272    -0.19390
H472        H  0.36765532  0.35060810  0.73328995     0.18370
H473        H  0.51552173  0.26528851  0.64666016     0.18380
F474        F  0.45932240  0.31608459  0.58388428    -0.19380
C475        C  0.66800868  0.34663854  0.44217690    -0.20820
C476        C  0.65782796  0.32959945  0.39080807    -0.08860
C477        C  0.68719512  0.28805641  0.37074721     0.30000
C478        C  0.71646309  0.25799749  0.40410224    -0.20820
C479        C  0.71913281  0.27124411  0.45659246    -0.08870
C480        C  0.69747976  0.31684116  0.47520242     0.30000
F481        F  0.70432373  0.33192125  0.52517788    -0.19390
H482        H  0.65273091  0.38264302  0.45760519     0.18370
H483        H  0.73661446  0.22404118  0.38933815     0.18380
F484        F  0.68418295  0.27421230  0.32008247    -0.19380
C485        C  0.29535949  0.48793055  0.67772838    -0.20820
C486        C  0.26627260  0.46522939  0.71628741    -0.08860
C487        C  0.26262826  0.41126849  0.72125139     0.30000
C488        C  0.29212157  0.37985041  0.68968155    -0.20820
C489        C  0.32779175  0.40181124  0.65474231    -0.08870
C490        C  0.32439040  0.45678465  0.64551397     0.30000
F491        F  0.34391268  0.48090363  0.60312630    -0.19390
H492        H  0.29400110  0.52962526  0.67142641     0.18370
H493        H  0.28849835  0.33799486  0.69343972     0.18380
F494        F  0.23021831  0.38926629  0.75638743    -0.19380
C495        C  0.35056019  0.68653760  0.43637700    -0.20820
C496        C  0.32501949  0.65798756  0.39717191    -0.08860
C497        C  0.27119494  0.66519130  0.39021398     0.30000
C498        C  0.24326184  0.69119544  0.42733344    -0.20820
C499        C  0.26794385  0.71142032  0.47136183    -0.08870
C500        C  0.32211970  0.71025661  0.47514607     0.30000
F501        F  0.34731352  0.73131033  0.51637513    -0.19390
H502        H  0.39244035  0.68511400  0.44014826     0.18370
H503        H  0.20210795  0.69686471  0.42061557     0.18380
F504        F  0.24522273  0.64944941  0.34717979    -0.19380
C505        C  0.66022340  0.51784991  0.71022822    -0.20820
C506        C  0.71403980  0.52398632  0.71038461    -0.08860
C507        C  0.73680478  0.56638720  0.68470156     0.30000
C508        C  0.70658135  0.59837179  0.65430760    -0.20820
C509        C  0.65295133  0.58954900  0.65012037    -0.08870
C510        C  0.62955348  0.55198104  0.68258326     0.30000
F511        F  0.57737364  0.54464817  0.68310576    -0.19390
H512        H  0.64187082  0.48653353  0.73142462     0.18370
H513        H  0.72560472  0.63022732  0.63475488     0.18380
F514        F  0.78792544  0.57814410  0.69017506    -0.19380
C515        C  0.68803855  0.41710049  0.23840312    -0.20820
C516        C  0.71136033  0.46041345  0.26214404    -0.08860
C517        C  0.71050720  0.46599813  0.31581405     0.30000
C518        C  0.68582505  0.42911973  0.34511900    -0.20820
C519        C  0.65571528  0.38987831  0.32119617    -0.08870
C520        C  0.66013887  0.38192846  0.26750772     0.30000
F521        F  0.63976275  0.33981159  0.24312806    -0.19390
H522        H  0.69227341  0.40980363  0.19729450     0.18370
H523        H  0.68535677  0.43476593  0.38663537     0.18380
F524        F  0.73260432  0.50751017  0.33985364    -0.19380
C525        C  0.48172881  0.68082670  0.30641644    -0.20820
C526        C  0.45907313  0.71501782  0.27169802    -0.08860
C527        C  0.40556423  0.72356436  0.27131648     0.30000
C528        C  0.37413656  0.69440774  0.30309411    -0.20820
C529        C  0.39540742  0.65529033  0.33490494    -0.08870
C530        C  0.45051704  0.65209138  0.33917522     0.30000
F531        F  0.47542395  0.62342567  0.37536475    -0.19390
H532        H  0.52358066  0.67707755  0.30866087     0.18370
H533        H  0.33256674  0.70039207  0.30092297     0.18380
F534        F  0.38385586  0.75974022  0.23961222    -0.19380
C535        C  0.57091529  0.71573885  0.71429799    -0.20820
C536        C  0.51733014  0.70904676  0.71137543    -0.08860
C537        C  0.49554916  0.67140695  0.67940147     0.30000
C538        C  0.52777066  0.64172430  0.64812619    -0.20820
C539        C  0.58212325  0.65064184  0.64744356    -0.08870
C540        C  0.60321303  0.68647898  0.68333987     0.30000
F541        F  0.65513075  0.69484363  0.68684985    -0.19390
H542        H  0.58764914  0.74430889  0.74036715     0.18370
H543        H  0.50952696  0.61144818  0.62555190     0.18380
F544        F  0.44347153  0.66351023  0.67853932    -0.19380
C545        C  0.64221302  0.70859411  0.57286577    -0.20820
C546        C  0.65081921  0.65469357  0.57598779    -0.08860
C547        C  0.68493238  0.63141773  0.53967414     0.30000
C548        C  0.70943756  0.66124556  0.50264770    -0.20820
C549        C  0.70491384  0.71537110  0.50380394    -0.08870
C550        C  0.67087496  0.73889389  0.53959836     0.30000
F551        F  0.66727898  0.79127546  0.54563297    -0.19390
H552        H  0.61408458  0.72863391  0.59643288     0.18370
H553        H  0.73444235  0.64202430  0.47490282     0.18380
F554        F  0.69464847  0.57954401  0.53978565    -0.19380
C555        C  0.06532665  0.75853881  0.76150377    -0.20820
C556        C  0.01223801  0.76739983  0.76775026    -0.08860
C557        C  0.99375108  0.80518040  0.80114461     0.30000
C558        C  0.02880382  0.83323499  0.83037822    -0.20820
C559        C  0.08293947  0.82268629  0.82743384    -0.08870
C560        C  0.10060890  0.78643816  0.79042502     0.30000
F561        F  0.15199480  0.77687761  0.78353924    -0.19390
H562        H  0.07925679  0.72969164  0.73416246     0.18370
H563        H  0.01261745  0.86376404  0.85410857     0.18380
F564        F  0.94213116  0.81505943  0.80503224    -0.19380
C565        C  0.20811378  0.81548097  0.97364139    -0.20820
C566        C  0.20292952  0.76144475  0.97507539    -0.08860
C567        C  0.17235360  0.73618706  0.93720483     0.30000
C568        C  0.14707987  0.76479382  0.89983332    -0.20820
C569        C  0.15538620  0.81858668  0.89567938    -0.08870
C570        C  0.18794298  0.84324806  0.93266370     0.30000
F571        F  0.19778653  0.89511504  0.93084000    -0.19390
H572        H  0.23064412  0.83606432  0.00258921     0.18370
H573        H  0.12104165  0.74368645  0.87482474     0.18380
F574        F  0.16871145  0.68359618  0.93362278    -0.19380
C575        C  0.20978070  0.87380779  0.81759891    -0.20820
C576        C  0.15590297  0.88178340  0.82064923    -0.08860
C577        C  0.13252274  0.91875266  0.78754409     0.30000
C578        C  0.16318299  0.95544610  0.76363911    -0.20820
C579        C  0.21729628  0.95142068  0.76632093    -0.08870
C580        C  0.24026740  0.90808419  0.79035541     0.30000
F581        F  0.29187783  0.89790415  0.78671458    -0.19390
H582        H  0.22900469  0.84174989  0.83679562     0.18370
H583        H  0.14446007  0.98736641  0.74356234     0.18380
F584        F  0.08020350  0.92462965  0.78496489    -0.19380
C585        C  0.06681339  0.86584273  0.93682360    -0.20820
C586        C  0.09519646  0.88915789  0.89671853    -0.08860
C587        C  0.10005605  0.94358160  0.89673118     0.30000
C588        C  0.06619984  0.97262516  0.92533664    -0.20820
C589        C  0.03383267  0.94943335  0.96259017    -0.08870
C590        C  0.04190980  0.89573658  0.97264098     0.30000
F591        F  0.02916052  0.87172701  0.01768448    -0.19390
H592        H  0.06629242  0.82400989  0.94196723     0.18370
H593        H  0.07215961  0.01357281  0.92273536     0.18380
F594        F  0.13994118  0.96947010  0.87434339    -0.19380
C595        C  0.76468784  0.82241332  0.01369254    -0.20820
C596        C  0.76426664  0.76843993  0.01923514    -0.08860
C597        C  0.78764580  0.74501058  0.06260494     0.30000
C598        C  0.81595573  0.77483337  0.09670092    -0.20820
C599        C  0.82082818  0.82860081  0.08863929    -0.08870
C600        C  0.79062247  0.85266134  0.04948004     0.30000
F601        F  0.79090579  0.90501361  0.04243288    -0.19390
H602        H  0.74482509  0.84113490  0.98170097     0.18370
H603        H  0.83356333  0.75534472  0.12939904     0.18380
F604        F  0.78171525  0.69358608  0.07327183    -0.19380
C605        C  0.82435989  0.95448112  0.13921673    -0.20820
C606        C  0.82248048  0.90008647  0.14871616    -0.08860
C607        C  0.78411076  0.88071426  0.18247674     0.30000
C608        C  0.75396390  0.91482907  0.21050345    -0.20820
C609        C  0.76044544  0.96836217  0.20426674    -0.08870
C610        C  0.79425459  0.98845114  0.16779059     0.30000
F611        F  0.79818787  0.04055933  0.16014981    -0.19390
H612        H  0.84850079  0.97157346  0.10970952     0.18370
H613        H  0.72628079  0.89962910  0.23819318     0.18380
F614        F  0.77837533  0.82889419  0.19098768    -0.19380
C615        C  0.92832213  0.79515226  0.13302571    -0.20820
C616        C  0.89238128  0.82917455  0.15698669    -0.08860
C617        C  0.89770469  0.83858203  0.21069168     0.30000
C618        C  0.93373166  0.81092992  0.23907880    -0.20820
C619        C  0.96931989  0.77753661  0.21472521    -0.08870
C620        C  0.96817355  0.77250502  0.16077944     0.30000
F621        F  0.00514665  0.74540671  0.13475171    -0.19390
H622        H  0.92733586  0.78873896  0.09158240     0.18370
H623        H  0.93266784  0.81568495  0.28067063     0.18380
F624        F  0.87109995  0.87588628  0.23654278    -0.19380
C625        C  0.93491729  0.91174080  0.00562102    -0.20820
C626        C  0.96634165  0.94900142  0.03057352    -0.08860
C627        C  0.96855206  0.94956439  0.08523725     0.30000
C628        C  0.93277263  0.92164537  0.11255369    -0.20820
C629        C  0.89708643  0.88908052  0.08706706    -0.08870
C630        C  0.90382667  0.87938098  0.03370029     0.30000
F631        F  0.88353035  0.83778609  0.00842475    -0.19390
H632        H  0.93581304  0.90712132  0.96387546     0.18370
H633        H  0.93242121  0.92572791  0.15431978     0.18380
F634        F  0.00477293  0.97560465  0.11325214    -0.19380
C635        C  0.80407858  0.05605851  0.74088878    -0.20820
C636        C  0.77922970  0.01270069  0.76191519    -0.08860
C637        C  0.78047861  0.00448842  0.81509887     0.30000
C638        C  0.80556652  0.03978160  0.84670252    -0.20820
C639        C  0.83538424  0.08125362  0.82642080    -0.08870
C640        C  0.83087841  0.09035516  0.77213263     0.30000
F641        F  0.84656586  0.13501073  0.74891974    -0.19390
H642        H  0.79964364  0.06583764  0.70029570     0.18370
H643        H  0.79811857  0.03431999  0.88680933     0.18380
F644        F  0.75482772  0.96395750  0.83700682    -0.19380
C645        C  0.85135075  0.16857871  0.94543715    -0.20820
C646        C  0.83233587  0.15000514  0.89718005    -0.08860
C647        C  0.78302291  0.16690932  0.88026416     0.30000
C648        C  0.75233407  0.19630507  0.91290518    -0.20820
C649        C  0.77042051  0.21032407  0.96208034    -0.08870
C650        C  0.82007738  0.19704050  0.97822026     0.30000
F651        F  0.83829067  0.21205215  0.02531204    -0.19390
H652        H  0.89052482  0.16084655  0.95841724     0.18370
H653        H  0.71478064  0.20959655  0.89922315     0.18380
F654        F  0.76529454  0.15804666  0.83157444    -0.19380
C655        C  0.97601341  0.15911759  0.77136620    -0.20820
C656        C  0.97116028  0.21320176  0.77249393    -0.08860
C657        C  0.93091185  0.23657079  0.80119047     0.30000
C658        C  0.89805521  0.20638620  0.83039197    -0.20820
C659        C  0.90252116  0.15189201  0.82975161    -0.08870
C660        C  0.94085943  0.12855536  0.79778130     0.30040
F661        F  0.94543849  0.07598684  0.79414101    -0.19390
H662        H  0.00612500  0.14041952  0.74878756     0.18370
H663        H  0.86839750  0.22654054  0.85207933     0.18380
F664        F  0.92085235  0.28843659  0.79889067    -0.19380
C665        C  0.98514590  0.05929863  0.93446582    -0.20820
C666        C  0.96255334  0.01744290  0.96144419    -0.08860
C667        C  0.90760356  0.01886582  0.96606939     0.30000
C668        C  0.87912859  0.05243896  0.93605994    -0.20820
C669        C  0.90239221  0.08434628  0.89882959    -0.08870
C670        C  0.95611940  0.09307447  0.90550233     0.30000
F671        F  0.97985407  0.13837908  0.89246387    -0.19390
H672        H  0.02413228  0.07214191  0.94228076     0.18370
H673        H  0.83949980  0.05863074  0.94785684     0.18380
F674        F  0.88087128  0.99673553  0.00549474    -0.19380
C675        C  0.20740623  0.14838456  0.09179662    -0.20820
C676        C  0.15318132  0.15447214  0.09009619    -0.08860
C677        C  0.13141603  0.18507927  0.04978822     0.30000
C678        C  0.16265805  0.20671629  0.01232358    -0.20820
C679        C  0.21652439  0.20373489  0.01693019    -0.08870
C680        C  0.23878001  0.17476281  0.05754903     0.30000
F681        F  0.29073550  0.17382163  0.06646217    -0.19390
H682        H  0.22678625  0.12326071  0.11898625     0.18370
H683        H  0.14461475  0.22842824  0.98115365     0.18380
F684        F  0.07947511  0.19298430  0.04570073    -0.19380
C685        C  0.21020268  0.07511489  0.22821306    -0.20820
C686        C  0.20487227  0.02132644  0.22221074    -0.08860
C687        C  0.16494949  0.00010249  0.19329252     0.30000
C688        C  0.13334413  0.03300452  0.16555050    -0.20820
C689        C  0.14398586  0.08720437  0.16348181    -0.08870
C690        C  0.17872664  0.10821237  0.20008924     0.30000
F691        F  0.18529725  0.16040033  0.20517390    -0.19390
H692        H  0.23939743  0.09118570  0.25393833     0.18370
H693        H  0.10137402  0.01515966  0.14513851     0.18380
F694        F  0.15713800  0.94786747  0.19148920    -0.19380
C695        C  0.00383080  0.16356460  0.20990103    -0.20820
C696        C  0.00876215  0.21750807  0.20958962    -0.08860
C697        C  0.05199133  0.24110595  0.18594477     0.30000
C698        C  0.08769552  0.21102594  0.16009316    -0.20820
C699        C  0.08162415  0.15690724  0.15801502    -0.08870
C700        C  0.04143715  0.13327780  0.18708313     0.30000
F701        F  0.03581330  0.08082163  0.18949793    -0.19390
H702        H  0.97178902  0.14481269  0.22955147     0.18370
H703        H  0.12040672  0.23057983  0.14266983     0.18380
F704        F  0.06175264  0.29288717  0.19019880    -0.19380
C705        C  0.03264062  0.09904914  0.07885462    -0.20820
C706        C  0.08607615  0.09171355  0.08612660    -0.08860
C707        C  0.11230311  0.05396778  0.05659333     0.30000
C708        C  0.08429289  0.01703751  0.03096401    -0.20820
C709        C  0.02997816  0.02118364  0.02775929    -0.08870
C710        C  0.00447084  0.06284339  0.05263110     0.30000
F711        F  0.95200810  0.06772760  0.05319319    -0.19390
H712        H  0.01152508  0.13167996  0.09469964     0.18370
H713        H  0.10600559  0.98479795  0.01513949     0.18380
F714        F  0.16474219  0.04856625  0.05837824    -0.19380
loop_ 
_geom_bond_atom_site_label_1 
_geom_bond_atom_site_label_2 
_geom_bond_distance 
_geom_bond_site_symmetry_2 
_ccdc_geom_bond_type 
C1          C676   1.532       .  S
C1          C689   1.529       .  S
C1          C699   1.515       .  S
C1          C706   1.509       .  S
C2          C639   1.556       .  S
C2          C646   1.529       .  S
C2          C659   1.526       .  S
C2          C669   1.542       .  S
C3          C599   1.517       .  S
C3          C606   1.525       .  S
C3          C616   1.535       .  S
C3          C629   1.517       .  S
C4          C559   1.528       .  S
C4          C569   1.531       .  S
C4          C576   1.516       .  S
C4          C586   1.517       .  S
C5          C589   1.536   1_655  S
C5          C626   1.510   1_556  S
C5          C666   1.545   1_565  S
C5          C709   1.505   1_666  S
C6            C7   1.409       .  A
C6           C11   1.420       .  A
C6          C549   1.464       .  S
C7            C8   1.379       .  A
C7           H12   1.083       .  S
C8            C9   1.445       .  A
C8          C164   1.528       .  S
C9           C10   1.444       .  A
C9           H13   1.082       .  S
C10          C11   1.385       .  A
C10         C109   1.534       .  S
C11          H14   1.082       .  S
C15          C16   1.409       .  A
C15          C20   1.407       .  A
C15         C536   1.437       .  S
C16          C17   1.385       .  A
C16          H21   1.084       .  S
C17          C18   1.451       .  A
C17         C179   1.538       .  S
C18          C19   1.452       .  A
C18          H22   1.082       .  S
C19          C20   1.385       .  A
C19          C54   1.536       .  S
C20          H23   1.084       .  S
C24          C25   1.402       .  A
C24          C29   1.409       .  A
C24         C526   1.432       .  S
C25          C26   1.379       .  A
C25          H30   1.085       .  S
C26          C27   1.449       .  A
C26         C286   1.528       .  S
C27          C28   1.451       .  A
C27          H31   1.082       .  S
C28          C29   1.387       .  A
C28          C55   1.536       .  S
C29          H32   1.084       .  S
C33          C34   1.409       .  A
C33          C38   1.407       .  A
C33         C516   1.445       .  S
C34          C35   1.376       .  A
C34          H39   1.083       .  S
C35          C36   1.448       .  A
C35         C234   1.525       .  S
C36          C37   1.448       .  A
C36          H40   1.082       .  S
C37          C38   1.379       .  A
C37          C66   1.526       .  S
C38          H41   1.084       .  S
O42         Ni50   2.046   1_554  S
O42          C52   1.317       .  A
O43         Ni50   2.045       .  S
O43          C53   1.318       .  A
O44         Ni50   1.855       .  S
O44          C54   1.252       .  A
O45         Ni50   1.852   1_554  S
O45          C55   1.252       .  A
O46         Ni51   2.054   1_554  S
O46          C55   1.319       .  A
O47         Ni51   2.051       .  S
O47          C54   1.319       .  A
O48         Ni51   1.844       .  S
O48          C53   1.250       .  A
O49         Ni51   1.848   1_554  S
O49          C52   1.251       .  A
Ni50        Ni51   2.364       .  S
C52         C214   1.530       .  S
C53          C74   1.526       .  S
O56         Ni64   2.041   1_554  S
O56          C66   1.317       .  A
O57         Ni64   2.040       .  S
O57          C67   1.316       .  A
O58         Ni64   1.849   1_554  S
O58          C68   1.252       .  A
O59         Ni64   1.848       .  S
O59          C69   1.251       .  A
O60         Ni65   2.047       .  S
O60          C69   1.318       .  A
O61         Ni65   2.047   1_554  S
O61          C68   1.317       .  A
O62         Ni65   1.848       .  S
O62          C67   1.251       .  A
O63         Ni65   1.850   1_554  S
O63          C66   1.252       .  A
Ni64        Ni65   2.367       .  S
C67          C81   1.524       .  S
C68         C269   1.531       .  S
C69          C72   1.530       .  S
C70          C71   1.409       .  A
C70          C75   1.408       .  A
C70         C596   1.447   1_556  S
C71          C72   1.381       .  A
C71          H76   1.084       .  S
C72          C73   1.448       .  A
C73          C74   1.448       .  A
C73          H77   1.082       .  S
C74          C75   1.378       .  A
C75          H78   1.084       .  S
C79          C80   1.408       .  A
C79          C84   1.410       .  A
C79         C506   1.450       .  S
C80          C81   1.379       .  A
C80          H85   1.084       .  S
C81          C82   1.446       .  A
C82          C83   1.447       .  A
C82          H86   1.082       .  S
C83          C84   1.381       .  A
C83         C124   1.528       .  S
C84          H87   1.084       .  S
C88          C89   1.408       .  A
C88          C93   1.415       .  A
C88         C499   1.450       .  S
C89          C90   1.377       .  A
C89          H94   1.083       .  S
C90          C91   1.446       .  A
C90         C318   1.525       .  S
C91          C92   1.446       .  A
C91          H95   1.082       .  S
C92          C93   1.384       .  A
C92         C110   1.533       .  S
C93          H96   1.084       .  S
O97        Ni105   2.044       .  S
O97         C107   1.317       .  A
O98        Ni105   2.046   1_455  S
O98         C108   1.317       .  A
O99        Ni105   1.852       .  S
O99         C109   1.252       .  A
O100       Ni105   1.851   1_455  S
O100        C110   1.252       .  A
O101       Ni106   2.049   1_455  S
O101        C110   1.318       .  A
O102       Ni106   2.049       .  S
O102        C109   1.318       .  A
O103       Ni106   1.854   1_455  S
O103        C108   1.253       .  A
O104       Ni106   1.850       .  S
O104        C107   1.252       .  A
Ni105      Ni106   2.365       .  S
C107        C129   1.528       .  S
C108        C237   1.532       .  S
O111       Ni119   2.048       .  S
O111        C121   1.318       .  A
O112       Ni119   2.046   1_455  S
O112        C122   1.318       .  A
O113       Ni119   1.845   1_455  S
O113        C123   1.250       .  A
O114       Ni119   1.848       .  S
O114        C124   1.251       .  A
O115       Ni120   2.045       .  S
O115        C124   1.317       .  A
O116       Ni120   2.044   1_455  S
O116        C123   1.318       .  A
O117       Ni120   1.846   1_455  S
O117        C122   1.251       .  A
O118       Ni120   1.846       .  S
O118        C121   1.251       .  A
Ni119      Ni120   2.366       .  S
C121        C127   1.529       .  S
C122        C347   1.529       .  S
C123        C136   1.526       .  S
C125        C126   1.405       .  A
C125        C130   1.404       .  A
C125        C556   1.428   1_655  S
C126        C127   1.381       .  A
C126        H131   1.085       .  S
C127        C128   1.449       .  A
C128        C129   1.448       .  A
C128        H132   1.082       .  S
C129        C130   1.381       .  A
C130        H133   1.085       .  S
C134        C135   1.401       .  A
C134        C139   1.402       .  A
C134        C486   1.422       .  S
C135        C136   1.378       .  A
C135        H140   1.085       .  S
C136        C137   1.450       .  A
C137        C138   1.450       .  A
C137        H141   1.082       .  S
C138        C139   1.380       .  A
C138        C210   1.528       .  S
C139        H142   1.085       .  S
C143        C144   1.400       .  A
C143        C148   1.404       .  A
C143        C479   1.425       .  S
C144        C145   1.378       .  A
C144        H149   1.085       .  S
C145        C146   1.451       .  A
C145        C343   1.525       .  S
C146        C147   1.450       .  A
C146        H150   1.082       .  S
C147        C148   1.380       .  A
C147        C165   1.528       .  S
C148        H151   1.085       .  S
O152       Ni160   2.051   1_545  S
O152        C162   1.318       .  A
O153       Ni160   2.050       .  S
O153        C163   1.319       .  A
O154       Ni160   1.843       .  S
O154        C164   1.250       .  A
O155       Ni160   1.847   1_545  S
O155        C165   1.250       .  A
O156       Ni161   2.047   1_545  S
O156        C165   1.318       .  A
O157       Ni161   2.047       .  S
O157        C164   1.318       .  A
O158       Ni161   1.848       .  S
O158        C163   1.251       .  A
O159       Ni161   1.848   1_545  S
O159        C162   1.251       .  A
Ni160      Ni161   2.365       .  S
C162        C292   1.534       .  S
C163        C182   1.532       .  S
O166       Ni174   2.049   1_545  S
O166        C176   1.318       .  A
O167       Ni174   2.051       .  S
O167        C177   1.319       .  A
O168       Ni174   1.848   1_545  S
O168        C178   1.252       .  A
O169       Ni174   1.854       .  S
O169        C179   1.252       .  A
O170       Ni175   2.055       .  S
O170        C179   1.319       .  A
O171       Ni175   2.053   1_545  S
O171        C178   1.318       .  A
O172       Ni175   1.854       .  S
O172        C177   1.252       .  A
O173       Ni175   1.847   1_545  S
O173        C176   1.251       .  A
Ni174      Ni175   2.363       .  S
C176        C324   1.531       .  S
C177        C184   1.536       .  S
C178        C191   1.536       .  S
C180        C181   1.410       .  A
C180        C185   1.415       .  A
C180        C636   1.454   1_565  S
C181        C182   1.381       .  A
C181        H186   1.084       .  S
C182        C183   1.449       .  A
C183        C184   1.448       .  A
C183        H187   1.082       .  S
C184        C185   1.383       .  A
C185        H188   1.083       .  S
C189        C190   1.415       .  A
C189        C194   1.406       .  A
C189        C469   1.451       .  S
C190        C191   1.389       .  A
C190        H195   1.084       .  S
C191        C192   1.449       .  A
C192        C193   1.445       .  A
C192        H196   1.082       .  S
C193        C194   1.377       .  A
C193        C266   1.528       .  S
C194        H197   1.084       .  S
O198       Ni206   2.047       .  S
O198        C208   1.318       .  A
O199       Ni206   2.048   1_554  S
O199        C209   1.318       .  A
O200       Ni206   1.849       .  S
O200        C210   1.251       .  A
O201       Ni206   1.841   1_554  S
O201        C211   1.250       .  A
O202       Ni207   2.046   1_554  S
O202        C211   1.318       .  A
O203       Ni207   2.045       .  S
O203        C210   1.317       .  A
O204       Ni207   1.840   1_554  S
O204        C209   1.250       .  A
O205       Ni207   1.843       .  S
O205        C208   1.250       .  A
Ni206      Ni207   2.366       .  S
C208        C385   1.528       .  S
C209        C216   1.528       .  S
C211        C246   1.527       .  S
C212        C213   1.418       .  A
C212        C217   1.409       .  A
C212        C566   1.462   1_554  S
C213        C214   1.380       .  A
C213        H218   1.082   1_554  S
C214        C215   1.443       .  A
C215        C216   1.446       .  A
C215        H219   1.082       .  S
C216        C217   1.380       .  A
C217        H220   1.083       .  S
O221       Ni229   2.050       .  S
O221        C231   1.319       .  A
O222       Ni229   2.048   1_455  S
O222        C232   1.318       .  A
O223       Ni229   1.846   1_455  S
O223        C233   1.250       .  A
O224       Ni229   1.842       .  S
O224        C234   1.249       .  A
O225       Ni230   2.045       .  S
O225        C234   1.318       .  A
O226       Ni230   2.046   1_455  S
O226        C233   1.318       .  A
O227       Ni230   1.842   1_455  S
O227        C232   1.249       .  A
O228       Ni230   1.838       .  S
O228        C231   1.248       .  A
Ni229      Ni230   2.366       .  S
C231        C365   1.528       .  S
C232        C239   1.529       .  S
C233        C248   1.529       .  S
C235        C236   1.415   1_655  A
C235        C240   1.417   1_655  A
C235        C619   1.466       .  S
C236        C237   1.383       .  A
C236        H241   1.083       .  S
C237        C238   1.444       .  A
C238        C239   1.445       .  A
C238        H242   1.082       .  S
C239        C240   1.380       .  A
C240        H243   1.081   1_455  S
C244        C245   1.408       .  A
C244        C249   1.414       .  A
C244        C456   1.453       .  S
C245        C246   1.379       .  A
C245        H250   1.084       .  S
C246        C247   1.447       .  A
C247        C248   1.445       .  A
C247        H251   1.082       .  S
C248        C249   1.379       .  A
C249        H252   1.083       .  S
O253       Ni261   2.041       .  S
O253        C263   1.316       .  A
O254       Ni261   2.037   1_554  S
O254        C264   1.315       .  A
O255       Ni261   1.852   1_554  S
O255        C265   1.254       .  A
O256       Ni261   1.850       .  S
O256        C266   1.252       .  A
O257       Ni262   2.043       .  S
O257        C266   1.317       .  A
O258       Ni262   2.044   1_554  S
O258        C265   1.316       .  A
O259       Ni262   1.852   1_554  S
O259        C264   1.253       .  A
O260       Ni262   1.854       .  S
O260        C263   1.253       .  A
Ni261      Ni262   2.366       .  S
C263        C383   1.529       .  S
C264        C271   1.525       .  S
C265        C301   1.532       .  S
C267        C268   1.410       .  A
C267        C272   1.404   1_556  A
C267        C649   1.439       .  S
C268        C269   1.386   1_556  A
C268        H273   1.084       .  S
C269        C270   1.448       .  A
C270        C271   1.446       .  A
C270        H274   1.082       .  S
C271        C272   1.379       .  A
C272        H275   1.085   1_554  S
O276       Ni284   2.043       .  S
O276        C286   1.317       .  A
O277       Ni284   2.044   1_545  S
O277        C287   1.316       .  A
O278       Ni284   1.849       .  S
O278        C288   1.252       .  A
O279       Ni284   1.851   1_545  S
O279        C289   1.252       .  A
O280       Ni285   2.043   1_545  S
O280        C289   1.317       .  A
O281       Ni285   2.045       .  S
O281        C288   1.317       .  A
O282       Ni285   1.844   1_545  S
O282        C287   1.251       .  A
O283       Ni285   1.850       .  S
O283        C286   1.252       .  A
Ni284      Ni285   2.366       .  S
C287        C303   1.528       .  S
C288        C374   1.528       .  S
C289        C294   1.528       .  S
C290        C291   1.408       .  A
C290        C295   1.403       .  A
C290        C609   1.430   1_545  S
C291        C292   1.384       .  A
C291        H296   1.085   1_545  S
C292        C293   1.450       .  A
C293        C294   1.448       .  A
C293        H297   1.082       .  S
C294        C295   1.380       .  A
C295        H298   1.085   1_545  S
C299        C300   1.422       .  A
C299        C304   1.415       .  A
C299        C449   1.472       .  S
C300        C301   1.386       .  A
C300        H305   1.080       .  S
C301        C302   1.440       .  A
C302        C303   1.441       .  A
C302        H306   1.082       .  S
C303        C304   1.381       .  A
C304        H307   1.082       .  S
O308       Ni316   2.043       .  S
O308        C318   1.317       .  A
O309       Ni316   2.042   1_545  S
O309        C319   1.317       .  A
O310       Ni316   1.846   1_545  S
O310        C320   1.250       .  A
O311       Ni316   1.845       .  S
O311        C321   1.250       .  A
O312       Ni317   2.036       .  S
O312        C321   1.316       .  A
O313       Ni317   2.036   1_545  S
O313        C320   1.316       .  A
O314       Ni317   1.842   1_545  S
O314        C319   1.250       .  A
O315       Ni317   1.842       .  S
O315        C318   1.250       .  A
Ni316      Ni317   2.370       .  S
C319        C356   1.525       .  S
C320        C326   1.520       .  S
C321        C376   1.520       .  S
C322        C323   1.413       .  A
C322        C327   1.405       .  A
C322        C579   1.452       .  S
C323        C324   1.385   1_565  A
C323        H328   1.084       .  S
C324        C325   1.449       .  A
C325        C326   1.445       .  A
C325        H329   1.082       .  S
C326        C327   1.372   1_545  A
C327        H330   1.083       .  S
O331       Ni339   2.049       .  S
O331        C341   1.318       .  A
O332       Ni339   2.049   1_455  S
O332        C342   1.317       .  A
O333       Ni339   1.843       .  S
O333        C343   1.249       .  A
O334       Ni339   1.849   1_455  S
O334        C344   1.252       .  A
O335       Ni340   2.047   1_455  S
O335        C344   1.317       .  A
O336       Ni340   2.045       .  S
O336        C343   1.318       .  A
O337       Ni340   1.850   1_455  S
O337        C342   1.252       .  A
O338       Ni340   1.846       .  S
O338        C341   1.250       .  A
Ni339      Ni340   2.365       .  S
C341        C367   1.531       .  S
C342        C349   1.533       .  S
C344        C358   1.532       .  S
C345        C346   1.409       .  A
C345        C350   1.416       .  A
C345        C656   1.457   1_455  S
C346        C347   1.379       .  A
C346        H351   1.084       .  S
C347        C348   1.446       .  A
C348        C349   1.447       .  A
C348        H352   1.082       .  S
C349        C350   1.385       .  A
C350        H353   1.083   1_455  S
C354        C355   1.419       .  A
C354        C359   1.421       .  A
C354        C439   1.482       .  S
C355        C356   1.377       .  A
C355        H360   1.075       .  S
C356        C357   1.439       .  A
C357        C358   1.441       .  A
C357        H361   1.082       .  S
C358        C359   1.383       .  A
C359        H362   1.079       .  S
C363        C364   1.406       .  A
C363        C368   1.413       .  A
C363        C696   1.447   1_655  S
C364        C365   1.378       .  A
C364        H369   1.084       .  S
C365        C366   1.449       .  A
C366        C367   1.447       .  A
C366        H370   1.082       .  S
C367        C368   1.379       .  A
C368        H371   1.083       .  S
C372        C373   1.406       .  A
C372        C377   1.398       .  A
C372        C686   1.423   1_565  S
C373        C374   1.384       .  A
C373        H378   1.084       .  S
C374        C375   1.449       .  A
C375        C376   1.448       .  A
C375        H379   1.082       .  S
C376        C377   1.375       .  A
C377        H380   1.085       .  S
C381        C382   1.410       .  A
C381        C386   1.415       .  A
C381        C679   1.459   1_556  S
C382        C383   1.382       .  A
C382        H387   1.083       .  S
C383        C384   1.445       .  A
C384        C385   1.445       .  A
C384        H388   1.082       .  S
C385        C386   1.380       .  A
C386        H389   1.083       .  S
C390        C426   1.504       .  S
C390        C436   1.544       .  S
C390        C466   1.556       .  S
C390        C489   1.540       .  S
C391        C416   1.510       .  S
C391        C446   1.529       .  S
C391        C476   1.524       .  S
C391        C519   1.511       .  S
C392        C409   1.518       .  S
C392        C509   1.517       .  S
C392        C539   1.535       .  S
C392        C546   1.533       .  S
C393        C399   1.518       .  S
C393        C459   1.528       .  S
C393        C496   1.522       .  S
C393        C529   1.533       .  S
C394        C396   1.515       .  S
C394        C406   1.517       .  S
C394        C419   1.508       .  S
C394        C429   1.504       .  S
C395        C396   1.406       .  A
C395        C400   1.364       .  A
C395        H402   1.078       .  S
C396        C397   1.408       .  A
C397        C398   1.368       .  A
C397        F404   1.359       .  S
C398        C399   1.409       .  A
C398        H403   1.077       .  S
C399        C400   1.410       .  A
C400        F401   1.358       .  S
C405        C406   1.405       .  A
C405        C410   1.367       .  A
C405        H412   1.083       .  S
C406        C407   1.410       .  A
C407        C408   1.371       .  A
C407        F414   1.351       .  S
C408        C409   1.404       .  A
C408        H413   1.084       .  S
C409        C410   1.413       .  A
C410        F411   1.357       .  S
C415        C416   1.402       .  A
C415        C420   1.359       .  A
C415        H422   1.083       .  S
C416        C417   1.410       .  A
C417        C418   1.365       .  A
C417        F424   1.357       .  S
C418        C419   1.402       .  A
C418        H423   1.084       .  S
C419        C420   1.411       .  A
C420        F421   1.357       .  S
C425        C426   1.402       .  A
C425        C430   1.357       .  A
C425        H432   1.077       .  S
C426        C427   1.413       .  A
C427        C428   1.369       .  A
C427        F434   1.359       .  S
C428        C429   1.404       .  A
C428        H433   1.078       .  S
C429        C430   1.411       .  A
C430        F431   1.359       .  S
C435        C436   1.411       .  A
C435        C440   1.381       .  A
C435        H442   1.068       .  S
C436        C437   1.423       .  A
C437        C438   1.376       .  A
C437        F444   1.356       .  S
C438        C439   1.404       .  A
C438        H443   1.077       .  S
C439        C440   1.405       .  A
C440        F441   1.357       .  S
C445        C446   1.415       .  A
C445        C450   1.383       .  A
C445        H452   1.082       .  S
C446        C447   1.411       .  A
C447        C448   1.378       .  A
C447        F454   1.355       .  S
C448        C449   1.407       .  A
C448        H453   1.080       .  S
C449        C450   1.400       .  A
C450        F451   1.358       .  S
C455        C456   1.393       .  A
C455        C460   1.376       .  A
C455        H462   1.083       .  S
C456        C457   1.408       .  A
C457        C458   1.376       .  A
C457        F464   1.359       .  S
C458        C459   1.406       .  A
C458        H463   1.076       .  S
C459        C460   1.420       .  A
C460        F461   1.358       .  S
C465        C466   1.409       .  A
C465        C470   1.375       .  A
C465        H472   1.069       .  S
C466        C467   1.434       .  A
C467        C468   1.383       .  A
C467        F474   1.359       .  S
C468        C469   1.386       .  A
C468        H473   1.084       .  S
C469        C470   1.402       .  A
C470        F471   1.359       .  S
C475        C476   1.420       .  A
C475        C480   1.374       .  A
C475        H482   1.081       .  S
C476        C477   1.407       .  A
C477        C478   1.380       .  A
C477        F484   1.357       .  S
C478        C479   1.399       .  A
C478        H483   1.084       .  S
C479        C480   1.383       .  A
C480        F481   1.358       .  S
C485        C486   1.378       .  A
C485        C490   1.376       .  A
C485        H492   1.084       .  S
C486        C487   1.396       .  A
C487        C488   1.376       .  A
C487        F494   1.359       .  S
C488        C489   1.408       .  A
C488        H493   1.084       .  S
C489        C490   1.435       .  A
C490        F491   1.356       .  S
C495        C496   1.411       .  A
C495        C500   1.383       .  A
C495        H502   1.084       .  S
C496        C497   1.410       .  A
C497        C498   1.373       .  A
C497        F504   1.357       .  S
C498        C499   1.401       .  A
C498        H503   1.084       .  S
C499        C500   1.399       .  A
C500        F501   1.358       .  S
C505        C506   1.396       .  A
C505        C510   1.379       .  A
C505        H512   1.083       .  S
C506        C507   1.406       .  A
C507        C508   1.377       .  A
C507        F514   1.359       .  S
C508        C509   1.404       .  A
C508        H513   1.081       .  S
C509        C510   1.415       .  A
C510        F511   1.358       .  S
C515        C516   1.405       .  A
C515        C520   1.380       .  A
C515        H522   1.083       .  S
C516        C517   1.393       .  A
C517        C518   1.371       .  A
C517        F524   1.358       .  S
C518        C519   1.414       .  A
C518        H523   1.082       .  S
C519        C520   1.406       .  A
C520        F521   1.357       .  S
C525        C526   1.384       .  A
C525        C530   1.383       .  A
C525        H532   1.084       .  S
C526        C527   1.396       .  A
C527        C528   1.377       .  A
C527        F534   1.359       .  S
C528        C529   1.409       .  A
C528        H533   1.083       .  S
C529        C530   1.426       .  A
C530        F531   1.351       .  S
C535        C536   1.393       .  A
C535        C540   1.377       .  A
C535        H542   1.084       .  S
C536        C537   1.389       .  A
C537        C538   1.387       .  A
C537        F544   1.357       .  S
C538        C539   1.419       .  A
C538        H543   1.079       .  S
C539        C540   1.414       .  A
C540        F541   1.358       .  S
C545        C546   1.405       .  A
C545        C550   1.377       .  A
C545        H552   1.078       .  S
C546        C547   1.418       .  A
C547        C548   1.380       .  A
C547        F554   1.356       .  S
C548        C549   1.396       .  A
C548        H553   1.083       .  S
C549        C550   1.411       .  A
C550        F551   1.358       .  S
C555        C556   1.396       .  A
C555        C560   1.377       .  A
C555        H562   1.084       .  S
C556        C557   1.383   1_455  A
C557        C558   1.379   1_655  A
C557        F564   1.358       .  S
C558        C559   1.423       .  A
C558        H563   1.079       .  S
C559        C560   1.410       .  A
C560        F561   1.358       .  S
C565        C566   1.396       .  A
C565        C570   1.377       .  A
C565        H572   1.083   1_556  S
C566        C567   1.412       .  A
C567        C568   1.376       .  A
C567        F574   1.358       .  S
C568        C569   1.403       .  A
C568        H573   1.077       .  S
C569        C570   1.419       .  A
C570        F571   1.358       .  S
C575        C576   1.405       .  A
C575        C580   1.376       .  A
C575        H582   1.081       .  S
C576        C577   1.412       .  A
C577        C578   1.378       .  A
C577        F584   1.358       .  S
C578        C579   1.400       .  A
C578        H583   1.083       .  S
C579        C580   1.405       .  A
C580        F581   1.358       .  S
C585        C586   1.404       .  A
C585        C590   1.363       .  A
C585        H592   1.083       .  S
C586        C587   1.404       .  A
C587        C588   1.365       .  A
C587        F594   1.356       .  S
C588        C589   1.408       .  A
C588        H593   1.066   1_565  S
C589        C590   1.419       .  A
C590        F591   1.358   1_556  S
C595        C596   1.394       .  A
C595        C600   1.379       .  A
C595        H602   1.084   1_554  S
C596        C597   1.406       .  A
C597        C598   1.375       .  A
C597        F604   1.359       .  S
C598        C599   1.403       .  A
C598        H603   1.081       .  S
C599        C600   1.417       .  A
C600        F601   1.358       .  S
C605        C606   1.420       .  A
C605        C610   1.381       .  A
C605        H612   1.079       .  S
C606        C607   1.411       .  A
C607        C608   1.377       .  A
C607        F614   1.358       .  S
C608        C609   1.395       .  A
C608        H613   1.084       .  S
C609        C610   1.385       .  A
C610        F611   1.358   1_565  S
C615        C616   1.416       .  A
C615        C620   1.379       .  A
C615        H622   1.083       .  S
C616        C617   1.414       .  A
C617        C618   1.379       .  A
C617        F624   1.354       .  S
C618        C619   1.404       .  A
C618        H623   1.081       .  S
C619        C620   1.399       .  A
C620        F621   1.358   1_655  S
C625        C626   1.409       .  A
C625        C630   1.365       .  A
C625        H632   1.085   1_554  S
C626        C627   1.413       .  A
C627        C628   1.367       .  A
C627        F634   1.356   1_655  S
C628        C629   1.406       .  A
C628        H633   1.083       .  S
C629        C630   1.411       .  A
C630        F631   1.356       .  S
C635        C636   1.397       .  A
C635        C640   1.379       .  A
C635        H642   1.084       .  S
C636        C637   1.390       .  A
C637        C638   1.380       .  A
C637        F644   1.359   1_545  S
C638        C639   1.416       .  A
C638        H643   1.063       .  S
C639        C640   1.426       .  A
C640        F641   1.358       .  S
C645        C646   1.420       .  A
C645        C650   1.379       .  A
C645        H652   1.081       .  S
C646        C647   1.411       .  A
C647        C648   1.381       .  A
C647        F654   1.356       .  S
C648        C649   1.399       .  A
C648        H653   1.084       .  S
C649        C650   1.387       .  A
C650        F651   1.358   1_556  S
C655        C656   1.395       .  A
C655        C660   1.381       .  A
C655        H662   1.083   1_655  S
C656        C657   1.409       .  A
C657        C658   1.376       .  A
C657        F664   1.359       .  S
C658        C659   1.405       .  A
C658        H663   1.080       .  S
C659        C660   1.421       .  A
C660        F661   1.359       .  S
C665        C666   1.409       .  A
C665        C670   1.367       .  A
C665        H672   1.076   1_655  S
C666        C667   1.422       .  A
C667        C668   1.371       .  A
C667        F674   1.356   1_546  S
C668        C669   1.400       .  A
C668        H673   1.078       .  S
C669        C670   1.413       .  A
C670        F671   1.359       .  S
C675        C676   1.406       .  A
C675        C680   1.379       .  A
C675        H682   1.076       .  S
C676        C677   1.419       .  A
C677        C678   1.378       .  A
C677        F684   1.357       .  S
C678        C679   1.395       .  A
C678        H683   1.083   1_554  S
C679        C680   1.408       .  A
C680        F681   1.358       .  S
C685        C686   1.397       .  A
C685        C690   1.380       .  A
C685        H692   1.084       .  S
C686        C687   1.382       .  A
C687        C688   1.374       .  A
C687        F694   1.358   1_545  S
C688        C689   1.421       .  A
C688        H693   1.079       .  S
C689        C690   1.408       .  A
C690        F691   1.358       .  S
C695        C696   1.392       .  A
C695        C700   1.375       .  A
C695        H702   1.084   1_455  S
C696        C697   1.409       .  A
C697        C698   1.375       .  A
C697        F704   1.359       .  S
C698        C699   1.400       .  A
C698        H703   1.081       .  S
C699        C700   1.418       .  A
C700        F701   1.357       .  S
C705        C706   1.402       .  A
C705        C710   1.360       .  A
C705        H712   1.080       .  S
C706        C707   1.406       .  A
C707        C708   1.363       .  A
C707        F714   1.359       .  S
C708        C709   1.406       .  A
C708        H713   1.080   1_545  S
C709        C710   1.410       .  A
C710        F711   1.358   1_455  S
