geometry optimzed in LAMMPS
_audit_creation_date              2020-12-01 
_audit_creation_method            'lammps2cif' 
_symmetry_space_group_name_H-M    'P1' 
_symmetry_Int_Tables_number       1 
_symmetry_cell_setting            triclinic 
loop_ 
_symmetry_equiv_pos_as_xyz 
  x,y,z 
_cell_length_a                    27.99950161 
_cell_length_b                    27.836600007835415 
_cell_length_c                    27.741294216673197 
_cell_angle_alpha                 90.30725887785754 
_cell_angle_beta                  88.65087698460773 
_cell_angle_gamma                 88.45012832118803 
loop_ 
_atom_site_label 
_atom_site_type_symbol 
_atom_site_fract_x 
_atom_site_fract_y 
_atom_site_fract_z 
_atom_site_charge 
C1          C  0.08162850  0.84718765  0.49134920     0.03700
C2          C  0.10652423  0.85630445  0.44756817     0.03700
C3          C  0.14264749  0.89237357  0.44778768     0.03700
C4          C  0.15018222  0.92027911  0.49026836     0.03700
C5          C  0.13741926  0.89861301  0.53470019     0.03700
C6          C  0.10318946  0.86150640  0.53476723     0.03700
C7          C  0.14390901  0.06370894  0.50832301     0.03700
C8          C  0.13275161  0.08526249  0.46349962     0.03700
C9          C  0.09960775  0.12552900  0.46269022     0.03700
C10         C  0.07581170  0.14142689  0.50623684     0.03700
C11         C  0.10015737  0.13099570  0.54988467     0.03700
C12         C  0.13659097  0.09340749  0.54985105     0.03700
C13         C  0.93320580  0.15155946  0.51711956     0.03700
C14         C  0.92191415  0.13383196  0.47110323     0.03700
C15         C  0.89499489  0.09097649  0.46924968     0.03700
C16         C  0.87315415  0.07186534  0.51128317     0.03700
C17         C  0.86559695  0.10410035  0.55038896     0.03700
C18         C  0.89626177  0.14533352  0.55312414     0.03700
C19         C  0.94127012  0.85674256  0.48496109     0.03700
C20         C  0.90747557  0.86297494  0.44781939     0.03700
C21         C  0.86936988  0.89899405  0.45348178     0.03700
C22         C  0.86882275  0.92862220  0.49598764     0.03700
C23         C  0.88990880  0.90802432  0.53779350     0.03700
C24         C  0.92619105  0.87115151  0.53186541     0.03700
C25         C  0.50551887  0.13571926  0.07984298     0.03700
C26         C  0.54548847  0.12346260  0.10732561     0.03700
C27         C  0.54164289  0.08742440  0.14334995     0.03700
C28         C  0.49699799  0.06676774  0.15286351     0.03700
C29         C  0.45606378  0.09515367  0.14123136     0.03700
C30         C  0.46045666  0.12903596  0.10255924     0.03700
C31         C  0.49650013  0.14019756  0.93681529     0.03700
C32         C  0.54062797  0.12640347  0.91482500     0.03700
C33         C  0.54066599  0.08825559  0.87857898     0.03700
C34         C  0.49613728  0.06790536  0.86495530     0.03700
C35         C  0.45536486  0.09917082  0.87268786     0.03700
C36         C  0.45695497  0.13708292  0.90701685     0.03700
C37         C  0.51319992  0.92621006  0.13970198     0.03700
C38         C  0.55284500  0.89396026  0.13203953     0.03700
C39         C  0.55184060  0.86031675  0.09278703     0.03700
C40         C  0.51249954  0.86126230  0.06101878     0.03700
C41         C  0.46915209  0.88065724  0.08052200     0.03700
C42         C  0.46923861  0.91193686  0.12109961     0.03700
C43         C  0.51262175  0.92316874  0.84475644     0.03700
C44         C  0.46781145  0.89948636  0.85060394     0.03700
C45         C  0.46468458  0.86193264  0.88664877     0.03700
C46         C  0.50470855  0.85377418  0.91661715     0.03700
C47         C  0.55043101  0.86000341  0.89400420     0.03700
C48         C  0.55406020  0.89438894  0.85584471     0.03700
C49         C  0.06008996  0.48007318  0.83198233     0.03700
C50         C  0.08932043  0.43976414  0.84342825     0.03700
C51         C  0.11061840  0.44352980  0.88977978     0.03700
C52         C  0.11857852  0.48990232  0.91066455     0.03700
C53         C  0.11211088  0.52942893  0.87884420     0.03700
C54         C  0.08348879  0.52414096  0.83713437     0.03700
C55         C  0.14031748  0.48256626  0.05405003     0.03700
C56         C  0.13479352  0.52875325  0.07548890     0.03700
C57         C  0.10186138  0.53355649  0.11635816     0.03700
C58         C  0.07427979  0.49319572  0.13044952     0.03700
C59         C  0.09818596  0.44748567  0.12372002     0.03700
C60         C  0.13497203  0.44350422  0.08618173     0.03700
C61         C  0.92958947  0.48554104  0.14772100     0.03700
C62         C  0.89635098  0.44717146  0.14487098     0.03700
C63         C  0.85557442  0.45182686  0.11355156     0.03700
C64         C  0.85144707  0.49459075  0.08548879     0.03700
C65         C  0.87241414  0.53728162  0.10349482     0.03700
C66         C  0.91113213  0.53235186  0.13656398     0.03700
C67         C  0.92357494  0.50715552  0.86586777     0.03700
C68         C  0.90402421  0.46335770  0.88074196     0.03700
C69         C  0.87252731  0.46358926  0.92194146     0.03700
C70         C  0.85611990  0.50715673  0.94333120     0.03700
C71         C  0.85938564  0.54802388  0.91437628     0.03700
C72         C  0.89754550  0.54971259  0.87978551     0.03700
O73         O  0.18365401  0.95085420  0.78171941    -0.78700
O74         O  0.24029218  0.05446615  0.81654671    -0.78700
O75         O  0.29260117  0.89550494  0.79659355    -0.78700
O76         O  0.18729409  0.05486469  0.74714550    -0.78700
O77         O  0.26710410  0.95850429  0.84030515    -0.78800
O78         O  0.13120587  0.00506959  0.72241792    -0.78700
O79         O  0.25758612  0.11376860  0.76651386    -0.78700
O80         O  0.21328134  0.88552649  0.74685786    -0.78700
C81         C  0.18352548  0.90632441  0.77634176     1.11000
C82         C  0.24438158  0.10000996  0.80819682     1.10900
C83         C  0.27675395  0.91392289  0.83587865     1.11000
C84         C  0.14330863  0.04379057  0.74309850     1.10900
O85         O  0.20331018  0.01931388  0.66065856    -0.78700
O86         O  0.34919510  0.96323327  0.78345073    -0.78800
O87         O  0.26197766  0.91187724  0.65776169    -0.78700
O88         O  0.33518273  0.05583937  0.75363957    -0.78700
O89         O  0.32921284  0.03905041  0.83265210    -0.78700
O90         O  0.18630638  0.93093834  0.67657425    -0.78700
O91         O  0.25934002  0.07139298  0.67372288    -0.78700
O92         O  0.35002677  0.91911776  0.71770283    -0.78700
Co93       Co  0.19602962  0.98539546  0.72240467     1.51500
Co94       Co  0.29111074  0.00460021  0.79206707     1.51700
Co95       Co  0.27925062  0.90739117  0.72815883     1.51600
Co96       Co  0.26160380  0.04992458  0.74320697     1.51500
O97         O  0.26227576  0.97880936  0.73260774    -1.40600
C98         C  0.22638101  0.05527453  0.64741512     1.10900
C99         C  0.37092514  0.93420557  0.75537294     1.11000
C100        C  0.21805688  0.91657722  0.64562431     1.10900
C101        C  0.35216680  0.05800478  0.79739940     1.10900
O102        O  0.03141683  0.15087134  0.70171668    -0.78700
O103        O  0.96567413  0.23571103  0.84099716    -0.78700
O104        O  0.08227349  0.24653641  0.83015424    -0.78700
O105        O  0.90298022  0.21538641  0.74863951    -0.78700
O106        O  0.03374869  0.28625367  0.88229950    -0.78800
O107        O  0.96607745  0.17324035  0.76758629    -0.78700
O108        O  0.91058120  0.28300570  0.81184726    -0.78700
O109        O  0.06391404  0.16977658  0.76909455    -0.78700
C110        C  0.05453633  0.13857898  0.73715361     1.11000
C111        C  0.92304936  0.25154952  0.84181327     1.10900
C112        C  0.07098665  0.26016791  0.87378547     1.11000
C113        C  0.92185742  0.17675164  0.76508903     1.10900
O114        O  0.94004529  0.19982927  0.67240304    -0.78700
O115        O  0.05756871  0.33662793  0.80472718    -0.78800
O116        O  0.09217292  0.22519475  0.68471468    -0.78700
O117        O  0.94676114  0.35122970  0.74801954    -0.78700
O118        O  0.97085198  0.33997299  0.82359091    -0.78700
O119        O  0.02218159  0.23329542  0.65371434    -0.78700
O120        O  0.93217598  0.27764650  0.66805742    -0.78700
O121        O  0.10053028  0.30603243  0.74529320    -0.78700
Co122      Co  0.99340859  0.20758100  0.71299314     1.51500
Co123      Co  0.01350120  0.28196464  0.81791043     1.51700
Co124      Co  0.07737360  0.23984443  0.75597440     1.51600
Co125      Co  0.93012409  0.28197661  0.74300740     1.51500
O126        O  0.00434614  0.26535292  0.74985478    -1.40600
C127        C  0.92594571  0.23567623  0.64947681     1.10900
C128        C  0.09072336  0.34066124  0.77395498     1.11000
C129        C  0.06597287  0.22547166  0.64797019     1.10900
C130        C  0.95167973  0.36643790  0.79142435     1.10900
O131        O  0.06509635  0.72786610  0.32570576    -0.78700
O132        O  0.95377913  0.65619157  0.25834126    -0.78700
O133        O  0.97382827  0.81095338  0.32347543    -0.78700
O134        O  0.04096138  0.65977230  0.17085233    -0.78700
O135        O  0.96238757  0.73329384  0.33501575    -0.78800
O136        O  0.05596608  0.64876502  0.24834480    -0.78700
O137        O  0.95074180  0.66860706  0.18025454    -0.78700
O138        O  0.06450237  0.80534547  0.31133213    -0.78700
C139        C  0.07034261  0.77131644  0.34068229     1.11000
C140        C  0.94783639  0.64010626  0.21549470     1.10900
C141        C  0.96074712  0.77689511  0.35053625     1.11000
C142        C  0.05585967  0.63310237  0.20455793     1.10900
O143        O  0.10168437  0.71389150  0.18547619    -0.78700
O144        O  0.91186875  0.79428317  0.27095549    -0.78800
O145        O  0.05787237  0.82412649  0.20984630    -0.78700
O146        O  0.95100166  0.76939828  0.15694459    -0.78700
O147        O  0.90207120  0.73200884  0.20663209    -0.78700
O148        O  0.11140670  0.77846302  0.24612202    -0.78700
O149        O  0.05072123  0.75821234  0.14433889    -0.78700
O150        O  0.96065245  0.83456643  0.22396383    -0.78700
Co151      Co  0.07653576  0.71740693  0.25307883     1.51500
Co152      Co  0.93934841  0.72755912  0.26724641     1.51700
Co153      Co  0.01360255  0.81371607  0.26313052     1.51600
Co154      Co  0.99897831  0.71830478  0.16822893     1.51500
O155        O  0.00717000  0.74328389  0.23884966    -1.40600
C156        C  0.09132112  0.73787061  0.14807441     1.10900
C157        C  0.92098421  0.83096882  0.24562250     1.11000
C158        C  0.10061141  0.81411740  0.21987482     1.10900
C159        C  0.90908011  0.76104500  0.17217403     1.10900
O160        O  0.34119530  0.82313393  0.02853566    -0.78700
O161        O  0.17481528  0.64688968  0.94682873    -0.78700
O162        O  0.27087168  0.63442918  0.07051334    -0.78700
O163        O  0.35689176  0.73130678  0.89902610    -0.78700
O164        O  0.24453746  0.61809708  0.00017184    -0.78800
O165        O  0.37269081  0.75430395  0.97085330    -0.78700
O166        O  0.24628761  0.63544334  0.90814842    -0.78700
O167        O  0.35853124  0.75104655  0.06167353    -0.78700
C168        C  0.36706334  0.79686428  0.05544659     1.11000
C169        C  0.20117940  0.62426124  0.91574860     1.10900
C170        C  0.24521127  0.60889684  0.04411089     1.11000
C171        C  0.38210562  0.75577525  0.92671478     1.10900
O172        O  0.28977706  0.81012802  0.94565183    -0.78700
O173        O  0.18708485  0.69868406  0.03262742    -0.78800
O174        O  0.27586533  0.74668074  0.09386136    -0.78700
O175        O  0.24699544  0.71895126  0.88077109    -0.78700
O176        O  0.19640878  0.73684091  0.94117500    -0.78700
O177        O  0.25255217  0.79725670  0.03731930    -0.78700
O178        O  0.28796193  0.75315735  0.88718961    -0.78700
O179        O  0.24586798  0.70108642  0.08753950    -0.78700
Co180      Co  0.30909534  0.77257521  0.00144127     1.51500
Co181      Co  0.22361057  0.68136333  0.97356595     1.51700
Co182      Co  0.31091384  0.69276354  0.05332214     1.51600
Co183      Co  0.30210852  0.68683307  0.91698432     1.51500
O184        O  0.28271516  0.71163268  0.98647184    -1.40600
C185        C  0.28441129  0.79743780  0.90232040     1.10900
C186        C  0.20135124  0.70292491  0.07548008     1.11000
C187        C  0.25596411  0.78747295  0.08161458     1.10900
C188        C  0.20484866  0.73270566  0.89631053     1.10900
O189        O  0.06102548  0.17318405  0.32446603    -0.78700
O190        O  0.96642403  0.32498049  0.19850567    -0.78700
O191        O  0.07030770  0.33321246  0.26125899    -0.78700
O192        O  0.93355377  0.25107904  0.33679911    -0.78700
O193        O  0.04547929  0.32303731  0.18576408    -0.78800
O194        O  0.97833552  0.18752926  0.33981384    -0.78700
O195        O  0.92911209  0.32081693  0.26619337    -0.78700
O196        O  0.07504336  0.25053397  0.33787830    -0.78700
C197        C  0.07382477  0.20667465  0.35262561     1.11000
C198        C  0.93818853  0.34374965  0.22840776     1.10900
C199        C  0.06362318  0.34942877  0.21786376     1.11000
C200        C  0.94925366  0.21557557  0.36036360     1.10900
O201        O  0.98854032  0.11698858  0.28069818    -0.78700
O202        O  0.05402478  0.22182405  0.16310163    -0.78800
O203        O  0.11090667  0.19233538  0.25716481    -0.78700
O204        O  0.93312922  0.24385233  0.18826299    -0.78700
O205        O  0.98437373  0.26923540  0.12933497    -0.78700
O206        O  0.04990469  0.15896362  0.22234150    -0.78700
O207        O  0.93400929  0.17449589  0.26240907    -0.78700
O208        O  0.10716283  0.26439394  0.19865296    -0.78700
Co209      Co  0.01004203  0.18016977  0.27605463     1.51500
Co210      Co  0.00583610  0.26550912  0.19095189     1.51700
Co211      Co  0.08587161  0.26095945  0.26632714     1.51600
Co212      Co  0.93913171  0.24870480  0.26369662     1.51500
O213        O  0.01460753  0.24886486  0.25916445    -1.40600
C214        C  0.94661783  0.12956180  0.26760547     1.10900
C215        C  0.09423317  0.24033300  0.16265903     1.11000
C216        C  0.09412214  0.16107193  0.22862934     1.10900
C217        C  0.94564724  0.24985053  0.14279754     1.10900
O218        O  0.20144735  0.95593625  0.32826596    -0.78700
O219        O  0.34098467  0.01917025  0.18994911    -0.78700
O220        O  0.34210318  0.91649808  0.24591384    -0.78700
O221        O  0.24605389  0.05825094  0.32475866    -0.78700
O222        O  0.32891431  0.93474345  0.16911149    -0.78800
O223        O  0.16911016  0.04011689  0.32089727    -0.78700
O224        O  0.33377396  0.05195549  0.26123325    -0.78700
O225        O  0.27335625  0.92279379  0.32999429    -0.78700
C226        C  0.23229022  0.93112819  0.34991704     1.11000
C227        C  0.35785946  0.04438505  0.22280980     1.10900
C228        C  0.35734148  0.92184191  0.20219761     1.11000
C229        C  0.20289670  0.05792115  0.34439108     1.10900
O230        O  0.16166193  0.00810101  0.23048194    -0.78700
O231        O  0.22753993  0.94384953  0.15583223    -0.78800
O232        O  0.20225739  0.89470013  0.26354706    -0.78700
O233        O  0.27152866  0.06538472  0.17531602    -0.78700
O234        O  0.28558403  0.01066741  0.11532167    -0.78700
O235        O  0.16531753  0.96437106  0.24547341    -0.78700
O236        O  0.19818896  0.07510006  0.23450977    -0.78700
O237        O  0.26393910  0.88291128  0.19136916    -0.78700
Co238      Co  0.21181222  0.00477213  0.27980409     1.51500
Co239      Co  0.27895377  0.98613405  0.17707618     1.51700
Co240      Co  0.27156449  0.90842420  0.25851633     1.51600
Co241      Co  0.26419647  0.05516386  0.24999530     1.51500
O242        O  0.26241705  0.97894631  0.24256369    -1.40600
C243        C  0.16244680  0.05248752  0.22113167     1.10900
C244        C  0.23866126  0.89932843  0.15717620     1.11000
C245        C  0.16745190  0.91845969  0.24565881     1.10900
C246        C  0.27770979  0.05389624  0.12977018     1.10900
O247        O  0.36113452  0.27386238  0.10266344    -0.78700
O248        O  0.24704290  0.33960513  0.91508346    -0.78700
O249        O  0.36742398  0.25286347  0.94792300    -0.78700
O250        O  0.25493544  0.35208390  0.01174521    -0.78700
O251        O  0.33983032  0.26957589  0.88083633    -0.78800
O252        O  0.27357585  0.34567944  0.08648090    -0.78700
O253        O  0.18080631  0.32983142  0.96115074    -0.78700
O254        O  0.38516054  0.24338911  0.03539684    -0.78700
C255        C  0.38717531  0.24325961  0.08051357     1.11000
C256        C  0.20320651  0.35175449  0.92741361     1.10900
C257        C  0.37020734  0.24555921  0.90398795     1.11000
C258        C  0.25010424  0.36716758  0.05455670     1.10900
O259        O  0.24488016  0.26943231  0.10679461    -0.78700
O260        O  0.27569315  0.21271625  0.89463117    -0.78800
O261        O  0.31715125  0.16640487  0.04356166    -0.78700
O262        O  0.19506139  0.23259371  0.96892899    -0.78700
O263        O  0.21943802  0.25604610  0.89906103    -0.78700
O264        O  0.28947624  0.21860966  0.09939288    -0.78700
O265        O  0.19049036  0.27875705  0.05031420    -0.78700
O266        O  0.30666176  0.16539927  0.94985814    -0.78700
Co267      Co  0.30014131  0.28085660  0.06846865     1.51500
Co268      Co  0.28202522  0.27490671  0.92664962     1.51700
Co269      Co  0.34270418  0.20770584  0.99366210     1.51600
Co270      Co  0.22835282  0.29021101  0.98984469     1.51500
O271        O  0.28868716  0.25661950  0.00065825    -1.40600
C272        C  0.20291320  0.26743545  0.09256461     1.10900
C273        C  0.28344472  0.17155791  0.91181512     1.11000
C274        C  0.29589104  0.17636439  0.08317682     1.10900
C275        C  0.18825139  0.23525070  0.92455362     1.10900
O276        O  0.83643113  0.01791516  0.35364140    -0.78700
O277        O  0.66682619  0.96045089  0.19772786    -0.78700
O278        O  0.65132500  0.05658380  0.27683199    -0.78700
O279        O  0.72305609  0.89913319  0.35301541    -0.78700
O280        O  0.67353498  0.05750125  0.20086799    -0.78800
O281        O  0.75896875  0.96745214  0.36399958    -0.78700
O282        O  0.65547232  0.92602559  0.26992938    -0.78700
O283        O  0.77689622  0.07418052  0.34844443    -0.78700
C284        C  0.81548302  0.05615703  0.36936277     1.11000
C285        C  0.64305543  0.93399583  0.22630890     1.10900
C286        C  0.64091309  0.06062583  0.23261085     1.11000
C287        C  0.75552813  0.92271259  0.37463394     1.10900
O288        O  0.83001741  0.94382683  0.28936176    -0.78700
O289        O  0.76980737  0.05404471  0.18696868    -0.78800
O290        O  0.78769607  0.09235702  0.29376249    -0.78700
O291        O  0.73498043  0.90306653  0.23991304    -0.78700
O292        O  0.76545909  0.95189317  0.18298139    -0.78700
O293        O  0.82905682  0.03348552  0.25856860    -0.78700
O294        O  0.76807841  0.89763869  0.28028985    -0.78700
O295        O  0.73592084  0.10663407  0.24031608    -0.78700
Co296      Co  0.79236962  0.00120154  0.30756506     1.51500
Co297      Co  0.72144880  0.00532945  0.19585314     1.51700
Co298      Co  0.71925903  0.06557457  0.29823006     1.51600
Co299      Co  0.71699514  0.94577319  0.30032915     1.51500
O300        O  0.73694874  0.00161570  0.26648058    -1.40600
C301        C  0.81307250  0.90360877  0.28037055     1.10900
C302        C  0.76027544  0.09701968  0.20133815     1.11000
C303        C  0.82539149  0.07702429  0.26972799     1.10900
C304        C  0.75164672  0.91103072  0.19633964     1.10900
O305        O  0.67697893  0.17920109  0.06879835    -0.78700
O306        O  0.82853617  0.32958597  0.96666712    -0.78700
O307        O  0.71776329  0.34140150  0.08105477    -0.78700
O308        O  0.64608391  0.26599886  0.95386878    -0.78700
O309        O  0.78705482  0.33912657  0.04472479    -0.78800
O310        O  0.66060041  0.18974186  0.97591649    -0.78700
O311        O  0.74961614  0.34668251  0.95232425    -0.78700
O312        O  0.65660991  0.25522783  0.08258581    -0.78700
C313        C  0.64576076  0.21098410  0.08076998     1.11000
C314        C  0.79530589  0.35822517  0.95140742     1.10900
C315        C  0.75764102  0.36110324  0.07177291     1.11000
C316        C  0.63321409  0.22148005  0.95747339     1.10900
O317        O  0.75669922  0.17041672  0.95125404    -0.78700
O318        O  0.83751291  0.25513514  0.04309523    -0.78800
O319        O  0.74238291  0.20285105  0.11402537    -0.78700
O320        O  0.76755225  0.27629025  0.90468736    -0.78700
O321        O  0.81549808  0.23736759  0.95155242    -0.78700
O322        O  0.77648872  0.16487313  0.05069408    -0.78700
O323        O  0.71635293  0.22608536  0.91081779    -0.78700
O324        O  0.79336029  0.27769531  0.10765259    -0.78700
Co325      Co  0.72058159  0.18005432  0.01210450     1.51500
Co326      Co  0.79288737  0.28445791  0.99920710     1.51700
Co327      Co  0.72592534  0.26917439  0.09129226     1.51600
Co328      Co  0.71754202  0.27886777  0.95892572     1.51500
O329        O  0.73833882  0.24956208  0.02090866    -1.40600
C330        C  0.73863173  0.18593676  0.91248856     1.10900
C331        C  0.83055010  0.25835118  0.08830166     1.11000
C332        C  0.77052658  0.17011620  0.09581345     1.10900
C333        C  0.80706397  0.25342147  0.91021818     1.10900
O334        O  0.08184665  0.80965529  0.67446748    -0.78700
O335        O  0.96873486  0.67298065  0.83588749    -0.78700
O336        O  0.07130501  0.64790505  0.70973717    -0.78700
O337        O  0.98193801  0.74098068  0.63744813    -0.78700
O338        O  0.03601688  0.65184514  0.77993254    -0.78800
O339        O  0.98853800  0.81705945  0.65778057    -0.78700
O340        O  0.94116576  0.66743098  0.76006594    -0.78700
O341        O  0.08576023  0.73342802  0.65311870    -0.78700
C342        C  0.08712222  0.77771462  0.64196447     1.11000
C343        C  0.94331623  0.65180191  0.80489581     1.10900
C344        C  0.05781179  0.62743814  0.74818097     1.11000
C345        C  0.97764432  0.78550436  0.62757948     1.10900
O346        O  0.96343785  0.82963264  0.75094075    -0.78700
O347        O  0.04753067  0.73392242  0.83583352    -0.78800
O348        O  0.12242517  0.77611886  0.74048881    -0.78700
O349        O  0.91595322  0.72601074  0.76084699    -0.78700
O350        O  0.95991403  0.76486447  0.81177155    -0.78700
O351        O  0.06415905  0.82086596  0.77546576    -0.78700
O352        O  0.92168724  0.77564018  0.70944906    -0.78700
O353        O  0.10682430  0.70043617  0.79214793    -0.78700
Co354      Co  0.02459435  0.81509678  0.71772151     1.51500
Co355      Co  0.00023907  0.71199161  0.79120384     1.51700
Co356      Co  0.09156798  0.71541831  0.72259942     1.51600
Co357      Co  0.96358985  0.71489889  0.70267250     1.51500
O358        O  0.02290332  0.74306066  0.73350134    -1.40600
C359        C  0.92493697  0.81634141  0.73134244     1.10900
C360        C  0.09066659  0.72069136  0.83091401     1.11000
C361        C  0.10807272  0.80795744  0.77091154     1.10900
C362        C  0.91954794  0.75042559  0.80042949     1.10900
O363        O  0.72317308  0.06182006  0.65325581    -0.78700
O364        O  0.69266744  0.91475827  0.74631156    -0.78700
O365        O  0.85277722  0.95852464  0.68162565    -0.78700
O366        O  0.67647210  0.05801653  0.81824381    -0.78700
O367        O  0.77751071  0.93301669  0.67725192    -0.78800
O368        O  0.65698076  0.06889724  0.74210947    -0.78700
O369        O  0.67010847  0.96808637  0.80168490    -0.78700
O370        O  0.79460496  0.02750713  0.65742795    -0.78700
C371        C  0.76458349  0.05194509  0.63418685     1.11000
C372        C  0.66164431  0.93117364  0.77704577     1.10900
C373        C  0.82108195  0.93570492  0.65861715     1.11000
C374        C  0.64511150  0.06736402  0.78719989     1.10900
O375        O  0.73847919  0.10824233  0.78810882    -0.78700
O376        O  0.79000062  0.88164351  0.75860699    -0.78800
O377        O  0.84149277  0.04562225  0.74230477    -0.78700
O378        O  0.72192082  0.99488915  0.87631953    -0.78700
O379        O  0.74980823  0.93503542  0.82863046    -0.78700
O380        O  0.79232949  0.10003303  0.71013420    -0.78700
O381        O  0.77979219  0.05006014  0.82262793    -0.78700
O382        O  0.82704465  0.94964182  0.77476919    -0.78700
Co383      Co  0.72658476  0.08002798  0.72373401     1.51500
Co384      Co  0.75841296  0.94112708  0.75133006     1.51700
Co385      Co  0.80408562  0.99120063  0.71819295     1.51600
Co386      Co  0.72729783  0.00781248  0.81067265     1.51500
O387        O  0.74055740  0.01114142  0.74489417    -1.40600
C388        C  0.76701119  0.09348936  0.82042458     1.10900
C389        C  0.82755145  0.90322931  0.77128889     1.11000
C390        C  0.83125511  0.08837025  0.72938925     1.10900
C391        C  0.73765876  0.95220005  0.87130124     1.10900
O392        O  0.69293414  0.83550960  0.05745919    -0.78700
O393        O  0.85519523  0.73867444  0.95995226    -0.78700
O394        O  0.80023636  0.74201451  0.09809029    -0.78700
O395        O  0.77642436  0.80722099  0.95732654    -0.78700
O396        O  0.81282800  0.79075013  0.03846294    -0.78800
O397        O  0.70517870  0.84069466  0.96404191    -0.78700
O398        O  0.80476842  0.73895396  0.89807932    -0.78700
O399        O  0.72330766  0.79194056  0.11586552    -0.78700
C400        C  0.71328383  0.83162345  0.09720459     1.11000
C401        C  0.84747116  0.74121870  0.91435177     1.10900
C402        C  0.82255476  0.77686364  0.08000951     1.11000
C403        C  0.74853360  0.84252601  0.95054808     1.10900
O404        O  0.64819541  0.75619551  0.95132782    -0.78700
O405        O  0.81811549  0.67840672  0.04310678    -0.78800
O406        O  0.66132694  0.71942079  0.10677946    -0.78700
O407        O  0.73252038  0.67490750  0.92947058    -0.78700
O408        O  0.79488472  0.67130934  0.97016658    -0.78700
O409        O  0.63550088  0.74648892  0.04076968    -0.78700
O410        O  0.70449602  0.76982389  0.90017283    -0.78700
O411        O  0.74714041  0.65905967  0.07448491    -0.78700
Co412      Co  0.67225998  0.79241728  0.00521465     1.51500
Co413      Co  0.79603805  0.73506992  0.99898729     1.51700
Co414      Co  0.73169882  0.72720563  0.09153666     1.51600
Co415      Co  0.75352133  0.74132123  0.94726904     1.51500
O416        O  0.72546362  0.74204903  0.01650766    -1.40600
C417        C  0.66028971  0.77293445  0.91142089     1.10900
C418        C  0.79087256  0.64774604  0.06448497     1.11000
C419        C  0.63292251  0.74766143  0.08524955     1.10900
C420        C  0.76823645  0.65070357  0.94238833     1.10900
C421        C  0.73573395  0.92103604  0.91381666    -0.15000
C422        C  0.76392283  0.88192369  0.91899054    -0.30200
H423        H  0.70669745  0.92834912  0.93976411     0.14000
H424        H  0.79439600  0.87550395  0.89459477     0.14600
C425        C  0.87944567  0.75471392  0.83394058    -0.15000
C426        C  0.88713240  0.74776928  0.88081442    -0.30200
H427        H  0.84361896  0.75530634  0.81968970     0.14000
H428        H  0.92321413  0.74496202  0.89441809     0.14600
C429        C  0.88018416  0.84273477  0.73912047    -0.15000
C430        C  0.87283364  0.87666191  0.77281274    -0.30200
H431        H  0.85131283  0.83281043  0.71574823     0.14000
H432        H  0.90150859  0.88881905  0.79515380     0.14600
C433        C  0.74725318  0.16259788  0.86690773    -0.15000
C434        C  0.77548540  0.12391910  0.86147444    -0.30200
H435        H  0.72597228  0.17623288  0.83735957     0.14000
H436        H  0.79679868  0.11024148  0.89091618     0.14600
C437        C  0.77843113  0.13740226  0.17448311    -0.15000
C438        C  0.78871341  0.13280799  0.12749767    -0.30200
H439        H  0.77060873  0.17277915  0.19008392     0.14000
H440        H  0.79742968  0.09779177  0.11160501     0.14600
C441        C  0.75281130  0.87139019  0.16270546    -0.15000
C442        C  0.72612887  0.87485423  0.12331826    -0.30200
H443        H  0.76554775  0.83672466  0.17566740     0.14000
H444        H  0.71184323  0.90952769  0.11177509     0.14600
C445        C  0.28108548  0.09248374  0.09565582    -0.15000
C446        C  0.27904484  0.13760861  0.11228447    -0.30200
H447        H  0.29131604  0.08399211  0.05847597     0.14000
H448        H  0.26790677  0.14619113  0.14921495     0.14600
C449        C  0.12513493  0.23963469  0.12024214    -0.15000
C450        C  0.16974497  0.25162779  0.12833922    -0.30200
H451        H  0.11102023  0.23652714  0.08425031     0.14000
H452        H  0.18330555  0.25109041  0.16488853     0.14600
C453        C  0.91161939  0.24032687  0.10646357    -0.15000
C454        C  0.86620193  0.24187280  0.12047511    -0.30200
H455        H  0.92227455  0.24432536  0.06876096     0.14000
H456        H  0.85545609  0.24038323  0.15840714     0.14600
C457        C  0.90980965  0.09395258  0.26256348    -0.15000
C458        C  0.86408284  0.10917992  0.26021773    -0.30200
H459        H  0.91908150  0.05608914  0.26706148     0.14000
H460        H  0.85449354  0.14724174  0.25907227     0.14600
C461        C  0.12659303  0.12823926  0.20258961    -0.15000
C462        C  0.12073297  0.08061376  0.20585774    -0.30200
H463        H  0.16204050  0.14211514  0.19548293     0.14000
H464        H  0.08563473  0.06622118  0.21335987     0.14600
C465        C  0.22999990  0.86718923  0.11563245    -0.15000
C466        C  0.23741422  0.81950008  0.12058185    -0.30200
H467        H  0.22689239  0.88288193  0.08005521     0.14000
H468        H  0.24038543  0.80486789  0.15666579     0.14600
C469        C  0.12277514  0.72932841  0.87058114    -0.15000
C470        C  0.16829718  0.73909689  0.86064198    -0.30200
H471        H  0.10954151  0.72642446  0.90753313     0.14000
H472        H  0.18067663  0.74039970  0.82332750     0.14600
C473        C  0.88686739  0.87070247  0.24650321    -0.15000
C474        C  0.84397835  0.86380620  0.26657139    -0.30200
H475        H  0.89824405  0.90622934  0.23584379     0.14000
H476        H  0.83152808  0.82795878  0.27452903     0.14600
C477        C  0.12838027  0.89266697  0.22599099    -0.15000
C478        C  0.13689538  0.84801877  0.21020814    -0.30200
H479        H  0.09222457  0.90727599  0.23142966     0.14000
H480        H  0.17327487  0.83376274  0.20653665     0.14600
C481        C  0.86697353  0.78344418  0.15128449    -0.15000
C482        C  0.86496010  0.79303196  0.10434475    -0.30200
H483        H  0.83377562  0.77831767  0.17160899     0.14000
H484        H  0.89722011  0.79865512  0.08281356     0.14600
C485        C  0.12537166  0.73587482  0.10765006    -0.15000
C486        C  0.16716278  0.71264925  0.11403103    -0.30200
H487        H  0.11544545  0.74984164  0.07266220     0.14000
H488        H  0.17791314  0.70097010  0.14961757     0.14600
C489        C  0.88758144  0.23640229  0.87770611    -0.15000
C490        C  0.84130824  0.24748662  0.87035348    -0.30200
H491        H  0.89953730  0.22267403  0.91209458     0.14000
H492        H  0.82993454  0.26083832  0.83556229     0.14600
C493        C  0.10421590  0.24832096  0.91251813    -0.15000
C494        C  0.14385691  0.22133352  0.90276453    -0.30200
H495        H  0.10127030  0.26948863  0.94558691     0.14000
H496        H  0.14743242  0.20216692  0.86859184     0.14600
C497        C  0.89423786  0.13335716  0.76838620    -0.15000
C498        C  0.86349206  0.12741561  0.73332054    -0.30200
H499        H  0.90199105  0.10541293  0.79445170     0.14000
H500        H  0.85737549  0.15624890  0.70775242     0.14600
C501        C  0.27303235  0.88130058  0.87668512    -0.15000
C502        C  0.27327239  0.83390386  0.86698314    -0.30200
H503        H  0.27499295  0.89511724  0.91325024     0.14000
H504        H  0.26959844  0.82100519  0.83020947     0.14600
C505        C  0.23953768  0.13552877  0.84656264    -0.15000
C506        C  0.26619817  0.12970726  0.88579186    -0.30200
H507        H  0.22676612  0.17117171  0.83643276     0.14000
H508        H  0.28090141  0.09446892  0.89489838     0.14600
C509        C  0.10890547  0.07810141  0.76334681    -0.15000
C510        C  0.07030600  0.08877688  0.73916521    -0.30200
H511        H  0.12208962  0.10363730  0.78937792     0.14000
H512        H  0.05887352  0.06478337  0.71079929     0.14600
C513        C  0.14335423  0.88056022  0.79706468    -0.15000
C514        C  0.14543187  0.83308209  0.79532343    -0.30200
H515        H  0.10899524  0.89970359  0.79944510     0.14000
H516        H  0.18068017  0.81574685  0.79303487     0.14600
C517        C  0.91596277  0.61025931  0.81939567    -0.15000
C518        C  0.91520612  0.59658862  0.86538348    -0.30200
H519        H  0.89995307  0.58832350  0.79190726     0.14000
H520        H  0.92984520  0.61898801  0.89332572     0.14600
C521        C  0.83352246  0.59254836  0.93000055    -0.15000
C522        C  0.78601705  0.60303652  0.92420737    -0.30200
H523        H  0.85641906  0.61855358  0.94654680     0.14000
H524        H  0.76306667  0.57879388  0.90533386     0.14600
C525        C  0.91892178  0.41739383  0.85648899    -0.15000
C526        C  0.93013550  0.41253217  0.80875584    -0.30200
H527        H  0.92193474  0.38613344  0.87957224     0.14000
H528        H  0.92425216  0.44187750  0.78378696     0.14600
C529        C  0.85552124  0.41862939  0.94156253    -0.15000
C530        C  0.81012365  0.40563982  0.93548701    -0.30200
H531        H  0.88176146  0.39480933  0.95802520     0.14000
H532        H  0.78457944  0.42969197  0.91834313     0.14600
C533        C  0.93347695  0.57638014  0.15591107    -0.15000
C534        C  0.93491523  0.58962816  0.20334213    -0.30200
H535        H  0.94557414  0.60127235  0.12857953     0.14000
H536        H  0.92329684  0.56542668  0.23153382     0.14600
C537        C  0.85559384  0.58666822  0.08629531    -0.15000
C538        C  0.80913071  0.59847905  0.07823970    -0.30200
H539        H  0.88149615  0.61469120  0.08221797     0.14000
H540        H  0.78251467  0.57156049  0.08522436     0.14600
C541        C  0.90933438  0.39958093  0.16653355    -0.15000
C542        C  0.91573179  0.39080626  0.21443544    -0.30200
H543        H  0.91667837  0.37061813  0.14075458     0.14000
H544        H  0.90633905  0.41789582  0.24157632     0.14600
C545        C  0.82584489  0.40827440  0.10164960    -0.15000
C546        C  0.77704827  0.40598863  0.09485270    -0.30200
H547        H  0.84682240  0.37529873  0.09589737     0.14000
H548        H  0.75352661  0.43673265  0.10294021     0.14600
C549        C  0.83649048  0.49075123  0.03315343    -0.15000
C550        C  0.85905923  0.51495477  0.99723801    -0.30200
H551        H  0.81168321  0.46347060  0.02309274     0.14000
H552        H  0.88505669  0.54119194  0.00729974     0.14600
C553        C  0.09232890  0.58056733  0.14138652    -0.15000
C554        C  0.07592812  0.58560154  0.18815965    -0.30200
H555        H  0.09699776  0.61246303  0.11954853     0.14000
H556        H  0.07416341  0.55491460  0.21204326     0.14600
C557        C  0.16593016  0.56881316  0.05732242    -0.15000
C558        C  0.21410206  0.57017538  0.06465699    -0.30200
H559        H  0.14886478  0.59748770  0.03703459     0.14000
H560        H  0.23050651  0.54348821  0.08790175     0.14600
C561        C  0.08317962  0.40363288  0.15022017    -0.15000
C562        C  0.07948334  0.39729836  0.19927772    -0.30200
H563        H  0.07732220  0.37332130  0.12648663     0.14000
H564        H  0.08845510  0.42582763  0.22399921     0.14600
C565        C  0.17071022  0.40202038  0.08205730    -0.15000
C566        C  0.21664453  0.40813795  0.06599706    -0.30200
H567        H  0.15975606  0.36648571  0.09281357     0.14000
H568        H  0.22826231  0.44360154  0.05569765     0.14600
C569        C  0.01965452  0.50232888  0.13587936    -0.15000
C570        C  0.98378525  0.47464004  0.15454691    -0.30200
H571        H  0.00806668  0.53514505  0.11843347     0.14000
H572        H  0.99405190  0.44063522  0.17039247     0.14600
C573        C  0.07223707  0.57786895  0.76367136    -0.15000
C574        C  0.06669346  0.56763605  0.81164893    -0.30200
H575        H  0.08990541  0.55250512  0.73880992     0.14000
H576        H  0.05124017  0.59452454  0.83634529     0.14600
C577        C  0.13298062  0.57631610  0.89119807    -0.15000
C578        C  0.18073059  0.58217565  0.89168255    -0.30200
H579        H  0.10863649  0.60500592  0.90372648     0.14000
H580        H  0.20484823  0.55406176  0.87746563     0.14600
C581        C  0.12203937  0.42286084  0.80264395    -0.15000
C582        C  0.12047985  0.38426659  0.77214740    -0.30200
H583        H  0.15035338  0.44773113  0.79438132     0.14000
H584        H  0.14797168  0.38302002  0.74379756     0.14600
C585        C  0.13263739  0.40069234  0.91025513    -0.15000
C586        C  0.17946763  0.39179112  0.90329842    -0.30200
H587        H  0.11052641  0.37747264  0.93222990     0.14000
H588        H  0.20057702  0.41486486  0.88010445     0.14600
C589        C  0.12647115  0.50090121  0.96461961    -0.15000
C590        C  0.14574741  0.47244676  0.99964007    -0.30200
H591        H  0.11192589  0.53552964  0.97690243     0.14000
H592        H  0.15995344  0.43733868  0.98934834     0.14600
C593        C  0.00923441  0.47804892  0.85107240    -0.15000
C594        C  0.97242478  0.50891740  0.84060201    -0.30200
H595        H  0.00247730  0.45015202  0.87740719     0.14000
H596        H  0.97890394  0.53738271  0.81509536     0.14600
C597        C  0.60193303  0.90817432  0.83723235    -0.15000
C598        C  0.61632724  0.90735834  0.78999285    -0.30200
H599        H  0.62611888  0.92105830  0.86424459     0.14000
H600        H  0.59468293  0.89148335  0.76247075     0.14600
C601        C  0.59288697  0.83224834  0.91274908    -0.15000
C602        C  0.62516881  0.80504876  0.88605530    -0.30200
H603        H  0.59578215  0.83101647  0.95151770     0.14000
H604        H  0.62536258  0.80612736  0.84694583     0.14600
C605        C  0.41768586  0.91482299  0.77455616    -0.15000
C606        C  0.42431528  0.91588999  0.82371348    -0.30200
H607        H  0.44495530  0.89928136  0.75030585     0.14000
H608        H  0.39464528  0.92780327  0.84715434     0.14600
C609        C  0.42079798  0.83161419  0.89517996    -0.15000
C610        C  0.42388936  0.78444001  0.90916543    -0.30200
H611        H  0.38569264  0.84809614  0.89022859     0.14000
H612        H  0.45904926  0.76791488  0.91367163     0.14600
C613        C  0.59800314  0.90251761  0.15796418    -0.15000
C614        C  0.59989122  0.91225034  0.20593279    -0.30200
H615        H  0.63024165  0.90452566  0.13577023     0.14000
H616        H  0.56857405  0.90771120  0.22914461     0.14600
C617        C  0.59188460  0.82619341  0.08158355    -0.15000
C618        C  0.60365786  0.78720572  0.10856913    -0.30200
H619        H  0.60628219  0.82878532  0.04510440     0.14000
H620        H  0.58951316  0.78334992  0.14507355     0.14600
C621        C  0.42312401  0.92804395  0.14318640    -0.15000
C622        C  0.40809828  0.91384992  0.18750352    -0.30200
H623        H  0.39850729  0.94637228  0.11929643     0.14000
H624        H  0.43227719  0.89473306  0.21120981     0.14600
C625        C  0.42371082  0.86213099  0.06337609    -0.15000
C626        C  0.41036465  0.81747047  0.07508015    -0.30200
H627        H  0.40113776  0.88569407  0.04203545     0.14000
H628        H  0.43324289  0.79492060  0.09718218     0.14600
C629        C  0.49628444  0.86366311  0.97065213    -0.15000
C630        C  0.51648666  0.84109097  0.00923748    -0.30200
H631        H  0.47270400  0.89442294  0.97872904     0.14000
H632        H  0.53903652  0.80945840  0.00249186     0.14600
C633        C  0.58623267  0.07265852  0.85457446    -0.12600
C634        C  0.59564272  0.07705062  0.80640645    -0.30200
H635        H  0.61455690  0.06172865  0.87856706     0.14000
H636        H  0.56782951  0.08917284  0.78232708     0.14600
C637        C  0.58791187  0.20135165  0.93780493    -0.15000
C638        C  0.58498974  0.15255994  0.92874976    -0.30200
H639        H  0.55728632  0.22519177  0.93209583     0.14000
H640        H  0.61712308  0.13016165  0.93155581     0.14600
C641        C  0.40824694  0.08725996  0.85443729    -0.15000
C642        C  0.39919182  0.07723605  0.80806602    -0.30200
H643        H  0.37938867  0.08693941  0.88137715     0.14000
H644        H  0.42646755  0.08034482  0.77987439     0.14600
C645        C  0.41668050  0.17152148  0.91710542    -0.15000
C646        C  0.40001492  0.20432375  0.88512551    -0.30200
H647        H  0.40632854  0.17531457  0.95487976     0.14000
H648        H  0.41022380  0.20208640  0.84717026     0.14600
C649        C  0.51860445  0.97807216  0.83800123    -0.15000
C650        C  0.48770864  0.01349210  0.85569878    -0.30200
H651        H  0.55318904  0.98935330  0.82498558     0.14000
H652        H  0.45338203  0.00117302  0.86888675     0.14600
C653        C  0.58506567  0.06954721  0.16726693    -0.15000
C654        C  0.59199776  0.07096542  0.21542216    -0.30200
H655        H  0.61413916  0.05821036  0.14289029     0.14000
H656        H  0.56341171  0.08211103  0.24046689     0.14600
C657        C  0.59179065  0.14534735  0.09621799    -0.15000
C658        C  0.59810773  0.19344304  0.09439917    -0.30200
H659        H  0.62183935  0.12045627  0.08998180     0.14000
H660        H  0.56861271  0.21873082  0.10205208     0.14600
C661        C  0.40883515  0.08447455  0.16396616    -0.15000
C662        C  0.40246228  0.06918298  0.21029033    -0.30200
H663        H  0.37847986  0.08565572  0.14026748     0.14000
H664        H  0.43089549  0.07081921  0.23614962     0.14600
C665        C  0.42112239  0.16150759  0.08767962    -0.15000
C666        C  0.41646116  0.20666989  0.10550445    -0.30200
H667        H  0.40268891  0.15174015  0.05535202     0.14000
H668        H  0.43488046  0.21668267  0.13793088     0.14600
C669        C  0.52322094  0.97900937  0.14704281    -0.15000
C670        C  0.49209589  0.01364559  0.16421042    -0.30200
H671        H  0.55647898  0.99023806  0.13051793     0.14000
H672        H  0.45892364  0.00202015  0.17991283     0.14600
C673        C  0.51236823  0.15240980  0.02776034    -0.15000
C674        C  0.48678231  0.13492881  0.99084575    -0.30200
H675        H  0.54284887  0.17384998  0.01880747     0.14000
H676        H  0.45699748  0.11237815  0.00041552     0.14600
C677        C  0.95686401  0.80285054  0.58201218    -0.15000
C678        C  0.95029263  0.85071581  0.57453878    -0.30200
H679        H  0.94542746  0.77700535  0.55547287     0.14000
H680        H  0.96020731  0.87611802  0.60213725     0.14600
C681        C  0.87610600  0.92537055  0.58746630    -0.15000
C682        C  0.83282006  0.91823433  0.60864031    -0.30200
H683        H  0.90381154  0.94184489  0.60818578     0.14000
H684        H  0.80548128  0.90039713  0.58858272     0.14600
C685        C  0.83604019  0.91170832  0.41284318    -0.15000
C686        C  0.78850654  0.90112862  0.41171350    -0.30200
H687        H  0.85105803  0.93318087  0.38412324     0.14000
H688        H  0.77371869  0.87718177  0.43857891     0.14600
C689        C  0.91678992  0.83643114  0.40143728    -0.15000
C690        C  0.93939405  0.79228388  0.39781042    -0.30200
H691        H  0.90798235  0.85558687  0.36865038     0.14000
H692        H  0.94582268  0.77059988  0.42953318     0.14600
C693        C  0.90930457  0.22302470  0.60064090    -0.15000
C694        C  0.89274205  0.17750439  0.59614207    -0.30200
H695        H  0.92032233  0.24377568  0.56953909     0.14000
H696        H  0.87983008  0.16042400  0.62860384     0.14600
C697        C  0.78614409  0.07599433  0.59039976    -0.15000
C698        C  0.83333480  0.08914619  0.59191833    -0.30200
H699        H  0.76560543  0.08116328  0.55807630     0.14000
H700        H  0.85147046  0.08539499  0.62587293     0.14600
C701        C  0.94121311  0.15552699  0.42554731    -0.15000
C702        C  0.93287515  0.20171994  0.41027049    -0.30200
H703        H  0.95956841  0.13007343  0.40121712     0.14000
H704        H  0.91153601  0.22683266  0.43239754     0.14600
C705        C  0.83690978  0.08290345  0.40801873    -0.15000
C706        C  0.88068037  0.07126024  0.42330901    -0.30200
H707        H  0.81542092  0.11090169  0.42631314     0.14000
H708        H  0.90314945  0.04366298  0.40569786     0.14600
C709        C  0.87359341  0.01770891  0.52039587    -0.15000
C710        C  0.85494120  0.98235510  0.49252336    -0.30200
H711        H  0.89517610  0.00709008  0.55052812     0.14000
H712        H  0.83394639  0.99374647  0.46213476     0.14600
C713        C  0.16057682  0.07907590  0.59537095    -0.15000
C714        C  0.20867952  0.07881968  0.60282719    -0.30200
H715        H  0.13689034  0.06605594  0.62374690     0.14000
H716        H  0.23329575  0.09431699  0.57679777     0.14600
C717        C  0.08786825  0.15702259  0.59597263    -0.15000
C718        C  0.08325777  0.20533130  0.60089969    -0.30200
H719        H  0.08460762  0.13517079  0.62805709     0.14000
H720        H  0.08573991  0.22844098  0.56959807     0.14600
C721        C  0.08690271  0.19212357  0.40232728    -0.15000
C722        C  0.08512503  0.14509756  0.41511372    -0.30200
H723        H  0.09814658  0.21894074  0.42792135     0.14000
H724        H  0.07510424  0.11855288  0.38865679     0.14600
C725        C  0.19194804  0.07476042  0.39464009    -0.15000
C726        C  0.15016962  0.06335489  0.41706252    -0.30200
H727        H  0.21703293  0.09739300  0.41271658     0.14000
H728        H  0.12528450  0.04052079  0.39891350     0.14600
C729        C  0.98603685  0.15069524  0.53213882    -0.15000
C730        C  0.02441896  0.16254203  0.50323533    -0.30200
H731        H  0.99358408  0.13245019  0.56571286     0.14000
H732        H  0.01607953  0.18153408  0.47053038     0.14600
C733        C  0.08786787  0.84075266  0.58123673    -0.15000
C734        C  0.09497016  0.79387753  0.59189189    -0.30200
H735        H  0.07538107  0.86600969  0.60906019     0.14000
H736        H  0.10783346  0.76842347  0.56442046     0.14600
C737        C  0.15722962  0.91511310  0.58157275    -0.15000
C738        C  0.20262513  0.90537276  0.59554220    -0.30200
H739        H  0.13170199  0.93118401  0.60741004     0.14000
H740        H  0.22809972  0.88822914  0.57034461     0.14600
C741        C  0.09137756  0.83386641  0.40075472    -0.15000
C742        C  0.08419578  0.78610545  0.39094185    -0.30200
H743        H  0.08690940  0.85935174  0.37173674     0.14000
H744        H  0.08904945  0.75922235  0.41869755     0.14600
C745        C  0.21513034  0.90920294  0.39545129    -0.15000
C746        C  0.16702323  0.90557755  0.40212707    -0.30200
H747        H  0.23990273  0.89818553  0.42306567     0.14000
H748        H  0.14340459  0.91460797  0.37287531     0.14600
C749        C  0.16356683  0.97340938  0.48593952    -0.15000
C750        C  0.14584200  0.00906411  0.51604101    -0.30200
H751        H  0.18297760  0.98411786  0.45380446     0.14000
H752        H  0.12610091  0.99780996  0.54789160     0.14600
C753        C  0.03042204  0.83089818  0.49326408    -0.15000
C754        C  0.99449100  0.85588407  0.47134225    -0.30200
H755        H  0.02188859  0.80347434  0.51896290     0.14000
H756        H  0.00483192  0.88242415  0.44480402     0.14600
loop_ 
_geom_bond_atom_site_label_1 
_geom_bond_atom_site_label_2 
_geom_bond_distance 
_geom_bond_site_symmetry_2 
_ccdc_geom_bond_type 
C1            C2   1.414       .  A
C1            C6   1.420       .  A
C1          C753   1.515       .  S
C2            C3   1.444       .  A
C2          C741   1.513       .  S
C3            C4   1.431       .  A
C3          C746   1.478       .  S
C4            C5   1.418       .  A
C4          C749   1.540       .  S
C5            C6   1.428       .  A
C5          C737   1.500       .  S
C6          C733   1.475       .  S
C7            C8   1.421       .  A
C7           C12   1.422       .  A
C7          C750   1.537       .  S
C8            C9   1.436       .  A
C8          C726   1.488       .  S
C9           C10   1.428       .  A
C9          C722   1.491       .  S
C10          C11   1.431       .  A
C10         C730   1.544       .  S
C11          C12   1.441       .  A
C11         C717   1.495       .  S
C12         C713   1.495       .  S
C13          C14   1.412       .  A
C13          C18   1.435       .  A
C13         C729   1.546       .  S
C14          C15   1.430       .  A
C14         C701   1.499       .  S
C15          C16   1.417       .  A
C15         C706   1.454       .  S
C16          C17   1.413       .  A
C16         C709   1.530       .  S
C17          C18   1.455       .  A
C17         C698   1.514       .  S
C18         C694   1.488       .  S
C19          C20   1.423       .  A
C19          C24   1.411       .  A
C19         C754   1.528       .  S
C20          C21   1.449       .  A
C20         C689   1.494       .  S
C21          C22   1.435       .  A
C21         C685   1.518       .  S
C22          C23   1.429       .  A
C22         C710   1.539       .  S
C23          C24   1.431       .  A
C23         C681   1.496       .  S
C24         C678   1.485       .  S
C25          C26   1.404       .  A
C25          C30   1.414       .  A
C25         C673   1.529       .  S
C26          C27   1.424       .  A
C26         C657   1.474       .  S
C27          C28   1.410       .  A
C27         C653   1.475       .  S
C28          C29   1.419       .  A
C28         C670   1.523       .  S
C29          C30   1.438       .  A
C29         C661   1.490       .  S
C30         C665   1.474       .  S
C31          C32   1.408       .  A
C31          C36   1.402       .  A
C31         C674   1.526       .  S
C32          C33   1.458       .  A
C32         C638   1.514       .  S
C33          C34   1.441       .  A
C33         C633   1.479       .  S
C34          C35   1.428       .  A
C34         C650   1.560       .  S
C35          C36   1.420       .  A
C35         C641   1.470       .  S
C36         C645   1.481       .  S
C37          C38   1.420       .  A
C37          C42   1.412       .  A
C37         C669   1.517       .  S
C38          C39   1.434       .  A
C38         C613   1.493       .  S
C39          C40   1.427       .  A
C39         C617   1.476       .  S
C40          C41   1.410       .  A
C40         C630   1.540       .  S
C41          C42   1.420       .  A
C41         C625   1.474       .  S
C42         C621   1.474       .  S
C43          C44   1.439       .  A
C43          C48   1.432       .  A
C43         C649   1.554       .  S
C44          C45   1.453       .  A
C44         C606   1.505       .  S
C45          C46   1.425       .  A
C45         C609   1.524       .  S
C46          C47   1.428       .  A
C46         C629   1.534       .  S
C47          C48   1.435       .  A
C47         C601   1.505       .  S
C48         C597   1.486       .  S
C49          C50   1.413       .  A
C49          C54   1.414       .  A
C49         C593   1.510       .  S
C50          C51   1.435       .  A
C50         C581   1.504       .  S
C51          C52   1.437       .  A
C51         C585   1.452       .  S
C52          C53   1.425       .  A
C52         C589   1.548       .  S
C53          C54   1.432       .  A
C53         C577   1.486       .  S
C54         C574   1.477       .  S
C55          C56   1.417       .  A
C55          C60   1.419       .  A
C55         C590   1.537   1_554  S
C56          C57   1.448       .  A
C56         C557   1.515       .  S
C57          C58   1.431       .  A
C57         C553   1.493       .  S
C58          C59   1.431       .  A
C58         C569   1.547       .  S
C59          C60   1.449       .  A
C59         C561   1.493       .  S
C60         C565   1.509       .  S
C61          C62   1.439       .  A
C61          C66   1.427       .  A
C61         C570   1.556       .  S
C62          C63   1.454       .  A
C62         C541   1.497       .  S
C63          C64   1.429       .  A
C63         C545   1.528       .  S
C64          C65   1.432       .  A
C64         C549   1.524       .  S
C65          C66   1.441       .  A
C65         C537   1.524       .  S
C66         C533   1.494       .  S
C67          C68   1.410       .  A
C67          C72   1.421       .  A
C67         C594   1.524       .  S
C68          C69   1.427       .  A
C68         C525   1.487       .  S
C69          C70   1.408       .  A
C69         C529   1.455       .  S
C70          C71   1.400       .  A
C70         C550   1.514       .  S
C71          C72   1.421       .  A
C71         C521   1.476       .  S
C72         C518   1.462       .  S
O73          C81   1.248       .  A
O73         Co93   1.939       .  S
O74          C82   1.298       .  A
O74         Co94   2.062       .  S
O75          C83   1.267       .  A
O75         Co95   1.972       .  S
O76          C84   1.285       .  A
O76         Co96   2.082       .  S
O77          C83   1.268       .  A
O77         Co94   1.978   1_565  S
O78          C84   1.276       .  A
O78         Co93   1.882   1_545  S
O79          C82   1.270       .  A
O79         Co96   1.887       .  S
O80          C81   1.279       .  A
O80         Co95   2.018       .  S
C81         C513   1.459       .  S
C82         C505   1.450       .  S
C83         C501   1.459       .  S
C84         C509   1.440       .  S
O85          C98   1.258       .  A
O85         Co93   1.969   1_545  S
O86          C99   1.255       .  A
O86         Co94   1.976   1_565  S
O87         C100   1.286       .  A
O87         Co95   2.027       .  S
O88         C101   1.316       .  A
O88         Co96   2.098       .  S
O89         C101   1.281       .  A
O89         Co94   1.851       .  S
O90         C100   1.276       .  A
O90         Co93   2.002       .  S
O91          C98   1.279       .  A
O91         Co96   2.023       .  S
O92          C99   1.284       .  A
O92         Co95   2.031       .  S
Co93         O97   1.887       .  S
Co94         O97   1.992   1_545  S
Co95         O97   2.034       .  S
Co96         O97   1.999   1_545  S
C98         C714   1.492       .  S
C99         C605   1.512       .  S
C100        C738   1.498       .  S
C101        C642   1.471       .  S
O102        C110   1.235       .  A
O102       Co122   1.900   1_455  S
O103        C111   1.261       .  A
O103       Co123   1.981   1_655  S
O104        C112   1.296       .  A
O104       Co124   2.073       .  S
O105        C113   1.277       .  A
O105       Co125   2.028       .  S
O106        C112   1.271       .  A
O106       Co123   1.891       .  S
O107        C113   1.243       .  A
O107       Co122   1.948       .  S
O108        C111   1.259       .  A
O108       Co125   1.974       .  S
O109        C110   1.274       .  A
O109       Co124   2.030       .  S
C110        C510   1.445       .  S
C111        C489   1.462       .  S
C112        C493   1.471       .  S
C113        C497   1.454       .  S
O114        C127   1.246       .  A
O114       Co122   1.908       .  S
O115        C128   1.254       .  A
O115       Co123   2.014       .  S
O116        C129   1.270       .  A
O116       Co124   2.047       .  S
O117        C130   1.286       .  A
O117       Co125   2.000       .  S
O118        C130   1.279       .  A
O118       Co123   1.986   1_655  S
O119        C129   1.246       .  A
O119       Co122   1.961   1_455  S
O120        C127   1.292       .  A
O120       Co125   2.081       .  S
O121        C128   1.266       .  A
O121       Co124   1.991       .  S
Co122       O126   1.936   1_655  S
Co123       O126   1.966       .  S
Co124       O126   2.157       .  S
Co125       O126   2.130   1_655  S
C127        C693   1.487       .  S
C128        C582   1.491       .  S
C129        C718   1.484       .  S
C130        C526   1.476       .  S
O131        C139   1.290       .  A
O131       Co151   2.051       .  S
O132        C140   1.284       .  A
O132       Co152   2.029       .  S
O133        C141   1.269       .  A
O133       Co153   1.992   1_655  S
O134        C142   1.268       .  A
O134       Co154   1.986   1_455  S
O135        C141   1.285       .  A
O135       Co152   2.009       .  S
O136        C142   1.288       .  A
O136       Co151   2.015       .  S
O137        C140   1.265       .  A
O137       Co154   1.983       .  S
O138        C139   1.262       .  A
O138       Co153   1.987       .  S
C139        C742   1.514       .  S
C140        C534   1.499       .  S
C141        C690   1.485       .  S
C142        C554   1.487       .  S
O143        C156   1.272       .  A
O143       Co151   1.989       .  S
O144        C157   1.271       .  A
O144       Co152   1.992       .  S
O145        C158   1.259       .  A
O145       Co153   1.935       .  S
O146        C159   1.266       .  A
O146       Co154   1.961       .  S
O147        C159   1.270       .  A
O147       Co152   2.003       .  S
O148        C158   1.268       .  A
O148       Co151   1.991       .  S
O149        C156   1.263       .  A
O149       Co154   1.955   1_455  S
O150        C157   1.257       .  A
O150       Co153   1.937   1_655  S
Co151       O155   2.100       .  S
Co152       O155   2.097   1_655  S
Co153       O155   2.083       .  S
Co154       O155   2.095   1_655  S
C156        C485   1.455       .  S
C157        C473   1.441       .  S
C158        C478   1.427       .  S
C159        C481   1.453       .  S
O160        C168   1.273       .  A
O160       Co180   1.855       .  S
O161        C169   1.274       .  A
O161       Co181   1.857       .  S
O162        C170   1.267       .  A
O162       Co182   2.050       .  S
O163        C171   1.264       .  A
O163       Co183   2.051       .  S
O164        C170   1.247       .  A
O164       Co181   1.992   1_554  S
O165        C171   1.248       .  A
O165       Co180   2.006   1_556  S
O166        C169   1.321       .  A
O166       Co183   2.164       .  S
O167        C168   1.315       .  A
O167       Co182   2.143       .  S
C168        C626   1.470       .  S
C169        C578   1.481       .  S
C170        C558   1.510       .  S
C171        C610   1.507       .  S
O172        C185   1.265       .  A
O172       Co180   1.951   1_556  S
O173        C186   1.269       .  A
O173       Co181   1.962   1_554  S
O174        C187   1.302       .  A
O174       Co182   2.081       .  S
O175        C188   1.294       .  A
O175       Co183   2.049       .  S
O176        C188   1.265       .  A
O176       Co181   1.938       .  S
O177        C187   1.265       .  A
O177       Co180   1.957       .  S
O178        C185   1.300       .  A
O178       Co183   2.059       .  S
O179        C186   1.298       .  A
O179       Co182   2.041       .  S
Co180       O184   1.916   1_554  S
Co181       O184   1.918       .  S
Co182       O184   2.097   1_554  S
Co183       O184   2.098       .  S
C185        C502   1.448       .  S
C186        C486   1.438       .  S
C187        C466   1.474       .  S
C188        C470   1.448       .  S
O189        C197   1.277       .  A
O189       Co209   1.989       .  S
O190        C198   1.236       .  A
O190       Co210   1.972   1_655  S
O191        C199   1.304       .  A
O191       Co211   2.053       .  S
O192        C200   1.263       .  A
O192       Co212   2.031       .  S
O193        C199   1.275       .  A
O193       Co210   1.977       .  S
O194        C200   1.240       .  A
O194       Co209   1.967   1_655  S
O195        C198   1.255       .  A
O195       Co212   2.020       .  S
O196        C197   1.291       .  A
O196       Co211   2.025       .  S
C197        C721   1.490       .  S
C198        C542   1.495       .  S
C199        C562   1.506       .  S
C200        C702   1.504       .  S
O201        C214   1.277       .  A
O201       Co209   1.878   1_655  S
O202        C215   1.251       .  A
O202       Co210   1.936       .  S
O203        C216   1.280       .  A
O203       Co211   2.030       .  S
O204        C217   1.314       .  A
O204       Co212   2.107       .  S
O205        C217   1.273       .  A
O205       Co210   1.828   1_655  S
O206        C216   1.257       .  A
O206       Co209   1.921       .  S
O207        C214   1.300       .  A
O207       Co212   2.075       .  S
O208        C215   1.265       .  A
O208       Co211   1.960       .  S
Co209       O213   1.978       .  S
Co210       O213   1.970       .  S
Co211       O213   2.047       .  S
Co212       O213   2.114   1_655  S
C214        C457   1.458       .  S
C215        C449   1.444       .  S
C216        C461   1.449       .  S
C217        C453   1.432       .  S
O218        C226   1.257       .  A
O218       Co238   1.940   1_565  S
O219        C227   1.256       .  A
O219       Co239   2.025   1_545  S
O220        C228   1.287       .  A
O220       Co240   2.016       .  S
O221        C229   1.314       .  A
O221       Co241   2.124       .  S
O222        C228   1.276       .  A
O222       Co239   1.981       .  S
O223        C229   1.271       .  A
O223       Co238   1.886       .  S
O224        C227   1.262       .  A
O224       Co241   1.980       .  S
O225        C226   1.279       .  A
O225       Co240   2.023       .  S
C226        C745   1.481       .  S
C227        C662   1.478       .  S
C228        C622   1.480       .  S
C229        C725   1.491       .  S
O230        C243   1.265       .  A
O230       Co238   1.984       .  S
O231        C244   1.271       .  A
O231       Co239   1.982       .  S
O232        C245   1.275       .  A
O232       Co240   1.990       .  S
O233        C246   1.308       .  A
O233       Co241   2.099       .  S
O234        C246   1.278       .  A
O234       Co239   1.855   1_545  S
O235        C245   1.278       .  A
O235       Co238   1.998   1_565  S
O236        C243   1.259       .  A
O236       Co241   1.973       .  S
O237        C244   1.276       .  A
O237       Co240   2.008       .  S
Co238       O242   1.860   1_545  S
Co239       O242   1.877       .  S
Co240       O242   2.025       .  S
Co241       O242   2.133   1_545  S
C243        C462   1.461       .  S
C244        C465   1.484       .  S
C245        C477   1.441       .  S
C246        C445   1.439       .  S
O247        C255   1.255       .  A
O247       Co267   1.979       .  S
O248        C256   1.302       .  A
O248       Co268   2.057       .  S
O249        C257   1.235       .  A
O249       Co269   1.921       .  S
O250        C258   1.261       .  A
O250       Co270   1.992   1_554  S
O251        C257   1.258       .  A
O251       Co268   2.036       .  S
O252        C258   1.259       .  A
O252       Co267   1.990       .  S
O253        C256   1.281       .  A
O253       Co270   1.898       .  S
O254        C255   1.254       .  A
O254       Co269   1.964   1_554  S
C255        C666   1.476       .  S
C256        C586   1.456       .  S
C257        C646   1.486       .  S
C258        C566   1.484       .  S
O259        C272   1.251       .  A
O259       Co267   1.892       .  S
O260        C273   1.259       .  A
O260       Co268   1.956       .  S
O261        C274   1.263       .  A
O261       Co269   1.940   1_554  S
O262        C275   1.252       .  A
O262       Co270   1.968       .  S
O263        C275   1.265       .  A
O263       Co268   2.010       .  S
O264        C274   1.264       .  A
O264       Co267   1.965       .  S
O265        C272   1.269       .  A
O265       Co270   1.995   1_554  S
O266        C273   1.263       .  A
O266       Co269   1.997       .  S
Co267       O271   2.031       .  S
Co268       O271   2.129   1_556  S
Co269       O271   2.013   1_556  S
Co270       O271   1.939   1_556  S
C272        C450   1.423       .  S
C273        C506   1.466       .  S
C274        C446   1.434       .  S
C275        C494   1.456       .  S
O276        C284   1.271       .  A
O276       Co296   1.863       .  S
O277        C285   1.274       .  A
O277       Co297   2.001   1_565  S
O278        C286   1.272       .  A
O278       Co298   2.027       .  S
O279        C287   1.293       .  A
O279       Co299   1.967       .  S
O280        C286   1.255       .  A
O280       Co297   1.952       .  S
O281        C287   1.287       .  A
O281       Co296   2.050   1_565  S
O282        C285   1.286       .  A
O282       Co299   2.024       .  S
O283        C284   1.326       .  A
O283       Co298   2.174       .  S
C284        C705   1.453       .  S
C285        C614   1.488       .  S
C286        C654   1.482       .  S
C287        C686   1.514       .  S
O288        C301   1.254       .  A
O288       Co296   1.947   1_565  S
O289        C302   1.278       .  A
O289       Co297   1.955       .  S
O290        C303   1.296       .  A
O290       Co298   2.076       .  S
O291        C304   1.308       .  A
O291       Co299   2.093       .  S
O292        C304   1.266       .  A
O292       Co297   1.932   1_565  S
O293        C303   1.250       .  A
O293       Co296   1.926       .  S
O294        C301   1.275       .  A
O294       Co299   2.000       .  S
O295        C302   1.288       .  A
O295       Co298   2.029       .  S
Co296       O300   1.947       .  S
Co297       O300   2.019       .  S
Co298       O300   2.026       .  S
Co299       O300   1.910   1_565  S
C301        C474   1.432       .  S
C302        C437   1.449       .  S
C303        C458   1.444       .  S
C304        C441   1.440       .  S
O305        C313   1.264       .  A
O305       Co325   1.969       .  S
O306        C314   1.289       .  A
O306       Co326   1.851       .  S
O307        C315   1.279       .  A
O307       Co327   2.039       .  S
O308        C316   1.304       .  A
O308       Co328   2.050       .  S
O309        C315   1.247       .  A
O309       Co326   1.973   1_554  S
O310        C316   1.272       .  A
O310       Co325   1.990   1_556  S
O311        C314   1.327       .  A
O311       Co328   2.119       .  S
O312        C313   1.277       .  A
O312       Co327   2.009       .  S
C313        C658   1.475       .  S
C314        C530   1.462       .  S
C315        C546   1.520       .  S
C316        C637   1.513       .  S
O317        C330   1.272       .  A
O317       Co325   1.961   1_556  S
O318        C331   1.267       .  A
O318       Co326   1.933   1_554  S
O319        C332   1.282       .  A
O319       Co327   2.000       .  S
O320        C333   1.274       .  A
O320       Co328   2.031       .  S
O321        C333   1.258       .  A
O321       Co326   1.940       .  S
O322        C332   1.266       .  A
O322       Co325   1.955       .  S
O323        C330   1.267       .  A
O323       Co328   1.981       .  S
O324        C331   1.266       .  A
O324       Co327   1.973       .  S
Co325       O329   2.026       .  S
Co326       O329   1.919   1_556  S
Co327       O329   2.044       .  S
Co328       O329   1.999   1_556  S
C330        C433   1.431       .  S
C331        C454   1.423       .  S
C332        C438   1.454       .  S
C333        C490   1.452       .  S
O334        C342   1.266       .  A
O334       Co354   1.982       .  S
O335        C343   1.280       .  A
O335       Co355   1.873   1_655  S
O336        C344   1.266       .  A
O336       Co356   2.010       .  S
O337        C345   1.274       .  A
O337       Co357   2.014       .  S
O338        C344   1.247       .  A
O338       Co355   1.948       .  S
O339        C345   1.259       .  A
O339       Co354   1.966   1_655  S
O340        C343   1.322       .  A
O340       Co357   2.167       .  S
O341        C342   1.274       .  A
O341       Co356   2.003       .  S
C342        C734   1.476       .  S
C343        C517   1.457       .  S
C344        C573   1.495       .  S
C345        C677   1.482       .  S
O346        C359   1.281       .  A
O346       Co354   1.957   1_655  S
O347        C360   1.257       .  A
O347       Co355   1.942       .  S
O348        C361   1.271       .  A
O348       Co356   1.984       .  S
O349        C362   1.296       .  A
O349       Co357   2.086       .  S
O350        C362   1.256       .  A
O350       Co355   1.907   1_655  S
O351        C361   1.275       .  A
O351       Co354   1.977       .  S
O352        C359   1.289       .  A
O352       Co357   2.037       .  S
O353        C360   1.279       .  A
O353       Co356   2.029       .  S
Co354       O358   2.056       .  S
Co355       O358   1.926       .  S
Co356       O358   2.066       .  S
Co357       O358   2.058   1_655  S
C359        C429   1.446       .  S
C360        C469   1.460       .  S
C361        C514   1.453       .  S
C362        C425   1.443       .  S
O363        C371   1.285       .  A
O363       Co383   2.022       .  S
O364        C372   1.277       .  A
O364       Co384   2.008       .  S
O365        C373   1.285       .  A
O365       Co385   1.890       .  S
O366        C374   1.267       .  A
O366       Co386   1.974       .  S
O367        C373   1.318       .  A
O367       Co384   2.121       .  S
O368        C374   1.288       .  A
O368       Co383   2.035       .  S
O369        C372   1.262       .  A
O369       Co386   1.990   1_565  S
O370        C371   1.259       .  A
O370       Co385   1.990   1_545  S
C371        C697   1.511       .  S
C372        C598   1.485       .  S
C373        C682   1.493       .  S
C374        C634   1.489       .  S
O375        C388   1.277       .  A
O375       Co383   1.986       .  S
O376        C389   1.280       .  A
O376       Co384   1.870       .  S
O377        C390   1.272       .  A
O377       Co385   1.987   1_545  S
O378        C391   1.262       .  A
O378       Co386   1.862   1_565  S
O379        C391   1.308       .  A
O379       Co384   2.160       .  S
O380        C390   1.260       .  A
O380       Co383   1.966       .  S
O381        C388   1.254       .  A
O381       Co386   1.941       .  S
O382        C389   1.295       .  A
O382       Co385   2.060       .  S
Co383       O387   2.039       .  S
Co384       O387   2.009   1_565  S
Co385       O387   1.975   1_565  S
Co386       O387   1.857       .  S
C388        C434   1.444       .  S
C389        C430   1.452       .  S
C390        C498   1.437       .  S
C391        C421   1.469       .  S
O392        C400   1.257       .  A
O392       Co412   1.983       .  S
O393        C401   1.290       .  A
O393       Co413   1.963       .  S
O394        C402   1.267       .  A
O394       Co414   1.986       .  S
O395        C403   1.256       .  A
O395       Co415   1.980       .  S
O396        C402   1.251       .  A
O396       Co413   1.967   1_554  S
O397        C403   1.264       .  A
O397       Co412   1.999   1_556  S
O398        C401   1.291       .  A
O398       Co415   1.956       .  S
O399        C400   1.250       .  A
O399       Co414   1.927       .  S
C400        C442   1.459       .  S
C401        C426   1.448       .  S
C402        C482   1.460       .  S
C403        C422   1.474       .  S
O404        C417   1.247       .  A
O404       Co412   1.943   1_556  S
O405        C418   1.297       .  A
O405       Co413   2.091   1_554  S
O406        C419   1.265       .  A
O406       Co414   2.023       .  S
O407        C420   1.251       .  A
O407       Co415   2.017       .  S
O408        C420   1.235       .  A
O408       Co413   1.944       .  S
O409        C419   1.235       .  A
O409       Co412   1.924       .  S
O410        C417   1.270       .  A
O410       Co415   2.063       .  S
O411        C418   1.280       .  A
O411       Co414   1.986       .  S
Co412       O416   2.049       .  S
Co413       O416   2.028   1_556  S
Co414       O416   2.134       .  S
Co415       O416   2.058   1_556  S
C417        C602   1.501       .  S
C418        C538   1.505       .  S
C419        C618   1.490       .  S
C420        C522   1.486       .  S
C421        C422   1.338       .  D
C421        H423   1.087       .  S
C422        H424   1.087       .  S
C425        C426   1.337       .  D
C425        H427   1.087       .  S
C426        H428   1.088       .  S
C429        C430   1.334       .  D
C429        H431   1.089       .  S
C430        H432   1.086       .  S
C433        C434   1.324       .  D
C433        H435   1.089       .  S
C434        H436   1.087       .  S
C437        C438   1.333       .  D
C437        H439   1.088       .  S
C438        H440   1.087       .  S
C441        C442   1.341       .  D
C441        H443   1.086       .  S
C442        H444   1.087       .  S
C445        C446   1.335       .  D
C445        H447   1.087       .  S
C446        H448   1.087       .  S
C449        C450   1.326       .  D
C449        H451   1.086       .  S
C450        H452   1.091       .  S
C453        C454   1.320       .  D
C453        H455   1.088       .  S
C454        H456   1.089       .  S
C457        C458   1.341       .  D
C457        H459   1.087       .  S
C458        H460   1.087       .  S
C461        C462   1.344       .  D
C461        H463   1.089       .  S
C462        H464   1.087       .  S
C465        C466   1.346       .  D
C465        H467   1.086       .  S
C466        H468   1.087       .  S
C469        C470   1.333       .  D
C469        H471   1.086       .  S
C470        H472   1.085       .  S
C473        C474   1.331       .  D
C473        H475   1.088       .  S
C474        H476   1.088       .  S
C477        C478   1.329       .  D
C477        H479   1.088       .  S
C478        H480   1.085       .  S
C481        C482   1.333       .  D
C481        H483   1.089       .  S
C482        H484   1.086       .  S
C485        C486   1.337       .  D
C485        H487   1.087       .  S
C486        H488   1.088       .  S
C489        C490   1.344       .  D
C489        H491   1.086       .  S
C490        H492   1.088       .  S
C493        C494   1.345       .  D
C493        H495   1.088       .  S
C494        H496   1.087       .  S
C497        C498   1.327       .  D
C497        H499   1.086       .  S
C498        H500   1.087       .  S
C501        C502   1.345       .  D
C501        H503   1.086       .  S
C502        H504   1.088       .  S
C505        C506   1.342       .  D
C505        H507   1.086       .  S
C506        H508   1.087       .  S
C509        C510   1.313       .  D
C509        H511   1.088       .  S
C510        H512   1.089       .  S
C513        C514   1.322       .  D
C513        H515   1.088       .  S
C514        H516   1.087       .  S
C517        C518   1.333       .  D
C517        H519   1.087       .  S
C518        H520   1.087       .  S
C521        C522   1.367       .  D
C521        H523   1.087       .  S
C522        H524   1.085       .  S
C525        C526   1.359       .  D
C525        H527   1.086       .  S
C526        H528   1.086       .  S
C529        C530   1.345       .  D
C529        H531   1.087       .  S
C530        H532   1.086       .  S
C533        C534   1.366       .  D
C533        H535   1.084       .  S
C534        H536   1.085       .  S
C537        C538   1.357       .  D
C537        H539   1.084       .  S
C538        H540   1.086       .  S
C541        C542   1.367       .  D
C541        H543   1.087       .  S
C542        H544   1.086       .  S
C545        C546   1.387       .  D
C545        H547   1.085       .  S
C546        H548   1.085       .  S
C549        C550   1.359   1_554  D
C549        H551   1.083       .  S
C550        H552   1.085   1_556  S
C553        C554   1.371       .  D
C553        H555   1.087       .  S
C554        H556   1.085       .  S
C557        C558   1.370       .  D
C557        H559   1.086       .  S
C558        H560   1.086       .  S
C561        C562   1.375       .  D
C561        H563   1.086       .  S
C562        H564   1.085       .  S
C565        C566   1.367       .  D
C565        H567   1.085       .  S
C566        H568   1.085       .  S
C569        C570   1.376   1_455  D
C569        H571   1.082       .  S
C570        H572   1.081       .  S
C573        C574   1.369       .  D
C573        H575   1.086       .  S
C574        H576   1.086       .  S
C577        C578   1.352       .  D
C577        H579   1.086       .  S
C578        H580   1.086       .  S
C581        C582   1.366       .  D
C581        H583   1.088       .  S
C582        H584   1.087       .  S
C585        C586   1.337       .  D
C585        H587   1.087       .  S
C586        H588   1.088       .  S
C589        C590   1.368       .  D
C589        H591   1.086       .  S
C590        H592   1.080       .  S
C593        C594   1.362   1_455  D
C593        H595   1.086       .  S
C594        H596   1.081       .  S
C597        C598   1.362       .  D
C597        H599   1.088       .  S
C598        H600   1.085       .  S
C601        C602   1.365       .  D
C601        H603   1.081       .  S
C602        H604   1.085       .  S
C605        C606   1.381       .  D
C605        H607   1.085       .  S
C606        H608   1.086       .  S
C609        C610   1.372       .  D
C609        H611   1.085       .  S
C610        H612   1.085       .  S
C613        C614   1.359       .  D
C613        H615   1.083       .  S
C614        H616   1.086       .  S
C617        C618   1.359       .  D
C617        H619   1.084       .  S
C618        H620   1.086       .  S
C621        C622   1.354       .  D
C621        H623   1.087       .  S
C622        H624   1.086       .  S
C625        C626   1.347       .  D
C625        H627   1.086       .  S
C626        H628   1.087       .  S
C629        C630   1.370   1_556  D
C629        H631   1.086       .  S
C630        H632   1.082       .  S
C633        C634   1.363       .  D
C633        H635   1.086       .  S
C634        H636   1.086       .  S
C637        C638   1.385       .  D
C637        H639   1.085       .  S
C638        H640   1.085       .  S
C641        C642   1.346       .  D
C641        H643   1.088       .  S
C642        H644   1.086       .  S
C645        C646   1.358       .  D
C645        H647   1.084       .  S
C646        H648   1.086       .  S
C649        C650   1.375   1_565  D
C649        H651   1.081       .  S
C650        H652   1.085       .  S
C653        C654   1.355       .  D
C653        H655   1.085       .  S
C654        H656   1.085       .  S
C657        C658   1.356       .  D
C657        H659   1.085       .  S
C658        H660   1.087       .  S
C661        C662   1.365       .  D
C661        H663   1.087       .  S
C662        H664   1.086       .  S
C665        C666   1.350       .  D
C665        H667   1.082       .  S
C666        H668   1.086       .  S
C669        C670   1.359   1_565  D
C669        H671   1.083       .  S
C670        H672   1.075       .  S
C673        C674   1.359   1_554  D
C673        H675   1.080       .  S
C674        H676   1.086   1_556  S
C677        C678   1.358       .  D
C677        H679   1.086       .  S
C678        H680   1.085       .  S
C681        C682   1.354       .  D
C681        H683   1.086       .  S
C682        H684   1.086       .  S
C685        C686   1.372       .  D
C685        H687   1.082       .  S
C686        H688   1.085       .  S
C689        C690   1.369       .  D
C689        H691   1.087       .  S
C690        H692   1.086       .  S
C693        C694   1.367       .  D
C693        H695   1.084       .  S
C694        H696   1.080       .  S
C697        C698   1.382       .  D
C697        H699   1.085       .  S
C698        H700   1.085       .  S
C701        C702   1.372       .  D
C701        H703   1.087       .  S
C702        H704   1.085       .  S
C705        C706   1.338       .  D
C705        H707   1.088       .  S
C706        H708   1.086       .  S
C709        C710   1.370   1_545  D
C709        H711   1.081       .  S
C710        H712   1.083       .  S
C713        C714   1.367       .  D
C713        H715   1.087       .  S
C714        H716   1.086       .  S
C717        C718   1.353       .  D
C717        H719   1.084       .  S
C718        H720   1.085       .  S
C721        C722   1.360       .  D
C721        H723   1.085       .  S
C722        H724   1.086       .  S
C725        C726   1.358       .  D
C725        H727   1.086       .  S
C726        H728   1.086       .  S
C729        C730   1.374   1_655  D
C729        H731   1.086       .  S
C730        H732   1.080       .  S
C733        C734   1.350       .  D
C733        H735   1.087       .  S
C734        H736   1.086       .  S
C737        C738   1.358       .  D
C737        H739   1.086       .  S
C738        H740   1.086       .  S
C741        C742   1.377       .  D
C741        H743   1.083       .  S
C742        H744   1.085       .  S
C745        C746   1.362       .  D
C745        H747   1.085       .  S
C746        H748   1.085       .  S
C749        C750   1.369   1_565  D
C749        H751   1.081       .  S
C750        H752   1.083   1_545  S
C753        C754   1.364   1_455  D
C753        H755   1.075       .  S
C754        H756   1.086   1_655  S
