geometry optimzed in LAMMPS
_audit_creation_date              2020-12-01 
_audit_creation_method            'lammps2cif' 
_symmetry_space_group_name_H-M    'P1' 
_symmetry_Int_Tables_number       1 
_symmetry_cell_setting            triclinic 
loop_ 
_symmetry_equiv_pos_as_xyz 
  x,y,z 
_cell_length_a                    50.03203877 
_cell_length_b                    49.98914724195355 
_cell_length_c                    50.053933547239396 
_cell_angle_alpha                 89.53946101998905 
_cell_angle_beta                  89.93293807833982 
_cell_angle_gamma                 89.56659701975764 
loop_ 
_atom_site_label 
_atom_site_type_symbol 
_atom_site_fract_x 
_atom_site_fract_y 
_atom_site_fract_z 
_atom_site_charge 
C1          C  0.28749373  0.88117980  0.63633059     0.43600
N2          N  0.32997638  0.87862239  0.64422487     0.02500
C3          C  0.37920154  0.82538636  0.76235923    -0.05400
H4          H  0.31598679  0.90237652  0.77454502     0.07900
C5          C  0.37552183  0.96302666  0.72325602    -0.05800
Co6        Co  0.33771983  0.84562567  0.69388246     0.74200
N7          N  0.32820147  0.88110263  0.73965273    -0.25000
Co8        Co  0.36914375  0.88245226  0.74119124     0.74100
C9          C  0.35515123  0.96385437  0.74418850     0.43700
N10         N  0.38556844  0.93657909  0.66237395     0.02100
N11         N  0.36736879  0.92341584  0.73844145     0.02200
N12         N  0.35711719  0.80096092  0.73172026    -0.45800
H13         H  0.27757415  0.85542302  0.67308896     0.07900
N14         N  0.31550479  0.86664707  0.72201608     0.02500
N15         N  0.41007641  0.88348720  0.74272242     0.02200
C16         C  0.44993367  0.87838838  0.75712028     0.43800
N17         N  0.37241357  0.92348792  0.64370501    -0.24400
C18         C  0.36127495  0.79906300  0.66368646    -0.05300
N19         N  0.31200699  0.88922934  0.62743418    -0.45500
N20         N  0.42433637  0.87245168  0.76205274    -0.45700
C21         C  0.37738474  0.79445811  0.64012518     0.43600
N22         N  0.35798749  0.82662315  0.72489418     0.02400
N23         N  0.41580395  0.88189300  0.64654421    -0.24400
N24         N  0.31813619  0.86478496  0.66341522    -0.24900
N25         N  0.42759608  0.89592215  0.66549227     0.02100
H26         H  0.43228279  0.85786334  0.61463029     0.08000
H27         H  0.46707264  0.90413347  0.72257429     0.08000
N28         N  0.37021276  0.84122707  0.74279706    -0.25000
N29         N  0.38147000  0.93694896  0.72078534    -0.24600
N30         N  0.37336495  0.83720058  0.64643204     0.02500
C31         C  0.28493810  0.88108931  0.74838176     0.43900
C32         C  0.36098168  0.94213800  0.62741137    -0.05800
N33         N  0.42454380  0.89669140  0.72508463    -0.24600
H34         H  0.38367868  0.97917500  0.71135278     0.08000
N35         N  0.28944890  0.86548430  0.72685091    -0.45800
H36         H  0.34879768  0.93792747  0.61012920     0.08000
C37         C  0.46069466  0.87962295  0.64352132     0.43700
C38         C  0.29179684  0.86511643  0.66003104    -0.05300
Co39       Co  0.37293059  0.88033259  0.64399335     0.73800
N40         N  0.38394933  0.96298642  0.65979202    -0.45500
C41         C  0.37054211  0.79858766  0.75503059     0.44000
N42         N  0.38442473  0.81901861  0.63028323    -0.45500
Co43       Co  0.40535803  0.91688042  0.69343714     0.73900
C44         C  0.45036773  0.89478537  0.73259464    -0.05800
C45         C  0.31071795  0.89125861  0.75691996    -0.05400
N46         N  0.35982328  0.82551856  0.66592615    -0.24900
N47         N  0.35148908  0.93871653  0.75286080    -0.45700
H48         H  0.38822312  0.83240806  0.78059055     0.08000
C49         C  0.43533740  0.87066699  0.63164845    -0.05800
Cl50       Cl  0.37139520  0.88123982  0.69288636    -0.48800
C51         C  0.36879358  0.96848107  0.63822020     0.43700
H52         H  0.35148731  0.78500590  0.67688137     0.07900
N53         N  0.45410281  0.89509311  0.66441680    -0.45500
C54         C  0.22985101  0.96755925  0.88908913     0.43600
N55         N  0.20674041  0.93555631  0.90541101     0.02500
C56         C  0.22016668  0.80046630  0.88686498    -0.05400
H57         H  0.21054772  0.85808165  0.79543947     0.07900
C58         C  0.12062719  0.88512686  0.82632254    -0.05800
Co59       Co  0.23004115  0.88233655  0.89241079     0.74200
N60         N  0.21456270  0.86642688  0.83750970    -0.25000
Co61       Co  0.18591513  0.84354600  0.85675347     0.74100
C62         C  0.13380649  0.87700152  0.80113399     0.43700
N63         N  0.13118254  0.91794627  0.88998711     0.02100
N64         N  0.15619206  0.86207666  0.83465563     0.02200
N65         N  0.24832050  0.82732262  0.90943920    -0.45800
H66         H  0.25965420  0.93815215  0.86966596     0.07900
N67         N  0.23090314  0.88173138  0.85106374     0.02500
N68         N  0.15699173  0.82117891  0.87578221     0.02200
C69         C  0.13345888  0.78792050  0.88866206     0.43800
N70         N  0.14863898  0.93054369  0.90494785    -0.24400
C71         C  0.24585664  0.87257607  0.95144078    -0.05300
N72         N  0.20866436  0.96199841  0.90479718    -0.45500
N73         N  0.15580594  0.79471455  0.87545155    -0.45700
C74         C  0.23463620  0.87953051  0.97738531     0.43600
N75         N  0.23231006  0.84122255  0.89359975     0.02400
N76         N  0.15068519  0.88976650  0.94475726    -0.24400
N77         N  0.22599506  0.92356884  0.89199600    -0.24900
N78         N  0.13311248  0.87461984  0.93244569     0.02100
H79         H  0.16068044  0.89707176  0.98547381     0.08000
H80         H  0.10206401  0.81583379  0.90803815     0.08000
N81         N  0.21547907  0.82614180  0.88034031    -0.25000
N82         N  0.13596289  0.87479435  0.84618141    -0.24600
N83         N  0.20888664  0.89433894  0.94671973     0.02500
C84         C  0.24223951  0.88764478  0.81028447     0.43900
C85         C  0.14439599  0.95668016  0.90405600    -0.05800
N86         N  0.13664473  0.83261784  0.88824320    -0.24600
H87         H  0.10249577  0.89669746  0.82903399     0.08000
N88         N  0.24792609  0.89466683  0.83555073    -0.45800
H89         H  0.15631503  0.97126515  0.91433227     0.08000
C90         C  0.12745755  0.86757562  0.97501349     0.43700
C91         C  0.24156556  0.94210262  0.88083715    -0.05300
Co92       Co  0.17854058  0.91276936  0.92571046     0.73800
N93         N  0.11500481  0.93534622  0.87750832    -0.45500
C94         C  0.24161419  0.80160459  0.90658020     0.44000
N95         N  0.21207596  0.89368391  0.97298646    -0.45500
Co96       Co  0.13293872  0.87502145  0.88916136     0.73900
C97         C  0.12066599  0.81297463  0.89738449    -0.05800
C98         C  0.22031641  0.86863417  0.81141222    -0.05400
N99         N  0.22851229  0.88258744  0.93374223    -0.24900
N100        N  0.15565018  0.86292637  0.80820035    -0.45700
H101        H  0.20922958  0.78343992  0.87961872     0.08000
C102        C  0.14832787  0.88705018  0.97106752    -0.05800
Cl103      Cl  0.18168040  0.87843357  0.89092833    -0.48800
C104        C  0.12235085  0.96018441  0.88592547     0.43700
H105        H  0.26453175  0.86267745  0.94665807     0.07900
N106        N  0.11882654  0.86041653  0.95012205    -0.45500
C107        C  0.37057848  0.76052332  0.82066144     0.43600
N108        N  0.35388145  0.73002725  0.84531264     0.02500
C109        C  0.38789061  0.71128483  0.97820943    -0.05400
H110        H  0.46756590  0.71727085  0.90734016     0.07900
C111        C  0.43328562  0.62947305  0.87227116    -0.05800
Co112      Co  0.36741213  0.73865968  0.90270083     0.74200
N113        N  0.42438858  0.72140344  0.90808140    -0.25000
Co114      Co  0.40734173  0.68703757  0.92512210     0.74100
C115        C  0.45915927  0.64007036  0.88151081     0.43700
N116        N  0.36884774  0.65060783  0.84330224     0.02100
N117        N  0.42706563  0.66232878  0.89914463     0.02200
N118        N  0.36007741  0.74370172  0.96301126    -0.45800
H119        H  0.38757867  0.78296257  0.85638879     0.07900
N120        N  0.40834677  0.74106054  0.90048911     0.02500
N121        N  0.38891633  0.65404636  0.94176983     0.02200
C122        C  0.37065728  0.62978234  0.97218234     0.43800
N123        N  0.35509696  0.67164453  0.83462931    -0.24400
C124        C  0.30828814  0.74854888  0.91833154    -0.05300
N125        N  0.35612938  0.73784734  0.82002207    -0.45500
N126        N  0.38753808  0.65003705  0.96786229    -0.45700
C127        C  0.28240996  0.73971522  0.90804701     0.43600
N128        N  0.37031012  0.72979439  0.94312642     0.02400
N129        N  0.31609913  0.66363447  0.87511310    -0.24400
N130        N  0.36559310  0.74639718  0.86205323    -0.24900
N131        N  0.32840594  0.64268471  0.88570935     0.02100
H132        H  0.27547452  0.67393171  0.86645123     0.08000
H133        H  0.34660261  0.60644651  0.94056469     0.08000
N134        N  0.38675813  0.71090806  0.95150502    -0.25000
N135        N  0.41437021  0.64452786  0.88449815    -0.24600
N136        N  0.31391121  0.71990089  0.88689299     0.02500
C137        C  0.44713052  0.75570357  0.89093035     0.43900
C138        C  0.35387660  0.67159365  0.80794601    -0.05800
N139        N  0.37371684  0.63771930  0.92780679    -0.24600
H140        H  0.42950564  0.61266204  0.85937562     0.08000
N141        N  0.42105888  0.76169990  0.89025102    -0.45800
H142        H  0.34275962  0.68570802  0.79571021     0.08000
C143        C  0.28613083  0.63370013  0.88606392     0.43700
C144        C  0.37653330  0.76644801  0.84822636    -0.05300
Co145      Co  0.33472035  0.69646915  0.86012512     0.73800
N146        N  0.37736790  0.63566399  0.82311579    -0.45500
C147        C  0.36992556  0.73280585  0.98583057     0.44000
N148        N  0.28764145  0.72204852  0.88856714    -0.45500
Co149      Co  0.37140678  0.64265071  0.88532059     0.73900
C150        C  0.36123021  0.62143880  0.94552411    -0.05800
C151        C  0.44977449  0.72894313  0.90310585    -0.05400
N152        N  0.32640334  0.73539016  0.90380297    -0.24900
N153        N  0.45339658  0.66023014  0.89808595    -0.45700
H154        H  0.40066563  0.69883398  0.99061888     0.08000
C155        C  0.28990533  0.65985193  0.87449697    -0.05800
Cl156      Cl  0.37033105  0.69101286  0.89316913    -0.48800
C157        C  0.36849695  0.64777010  0.80031153     0.43700
H158        H  0.31285843  0.76367388  0.93291162     0.07900
N159        N  0.31084514  0.62388782  0.89282710    -0.45500
C160        C  0.36260991  0.02062144  0.78896100     0.43600
N161        N  0.38289519  0.03939406  0.82114882     0.02500
C162        C  0.36354481  0.02890061  0.95615929    -0.05400
H163        H  0.27369531  0.04745977  0.90286104     0.07900
C164        C  0.31281256  0.13330424  0.87030007    -0.05800
Co165      Co  0.36697118  0.01840850  0.87413523     0.74200
N166        N  0.31491490  0.04050992  0.89159279    -0.25000
Co167      Co  0.33826770  0.06706239  0.91327983     0.74100
C168        C  0.28704919  0.12245815  0.88027381     0.43700
N169        N  0.37604094  0.11584422  0.83592189     0.02100
N170        N  0.31947670  0.09846497  0.89485731     0.02200
N171        N  0.38096010  0.99737355  0.92887590    -0.45800
H172        H  0.33905245  0.99349632  0.81814831     0.07900
N173        N  0.32623088  0.02316593  0.87542293     0.02500
N174        N  0.36110471  0.09423340  0.93414833     0.02200
C175        C  0.37596279  0.11817377  0.96616461     0.43800
N176        N  0.38939664  0.09652393  0.82386464    -0.24400
C177        C  0.42216017  0.99467204  0.88503619    -0.05300
N178        N  0.38134530  0.03874028  0.79482187    -0.45500
N179        N  0.36110939  0.09664455  0.96052482    -0.45700
C180        C  0.44937582  0.00253142  0.88050120     0.43600
N181        N  0.36823003  0.01614412  0.91525444     0.02400
N182        N  0.42867695  0.09068313  0.86434652    -0.24400
N183        N  0.36685452  0.02231597  0.83301472    -0.24900
N184        N  0.41827711  0.11092867  0.87775759     0.02100
H185        H  0.46836130  0.07815940  0.85391972     0.08000
H186        H  0.39689809  0.14692734  0.93655387     0.08000
N187        N  0.35805740  0.03494382  0.93058248    -0.25000
N188        N  0.33204453  0.11693344  0.88058780    -0.24600
N189        N  0.42366672  0.03180947  0.86273312     0.02500
C190        C  0.28454526  0.01501816  0.87204621     0.43900
C191        C  0.38968605  0.10064495  0.79759780    -0.05800
N192        N  0.37482187  0.11310618  0.92160502    -0.24600
H193        H  0.31626297  0.15053440  0.85756835     0.08000
N194        N  0.30890888  0.00750393  0.86354203    -0.45800
H195        H  0.39920577  0.08768233  0.78322250     0.08000
C196        C  0.46124916  0.11533065  0.87953288     0.43700
C197        C  0.35309156  0.00939977  0.81434227    -0.05300
Co198      Co  0.40659571  0.06454706  0.84297886     0.73800
N199        N  0.36623397  0.13340734  0.81814557    -0.45500
C200        C  0.37918904  0.00417979  0.95461679     0.44000
N201        N  0.44931834  0.02557084  0.86610198    -0.45500
Co202      Co  0.37524419  0.11548036  0.87890093     0.73900
C203        C  0.38523324  0.12916413  0.94040309    -0.05800
C204        C  0.28833701  0.03674069  0.89108318    -0.05400
N205        N  0.40769104  0.01405899  0.87368474    -0.24900
N206        N  0.29325272  0.10103522  0.89512423    -0.45700
H207        H  0.35779710  0.04055348  0.97337863     0.08000
C208        C  0.45520826  0.09176085  0.86440301    -0.05800
Cl209      Cl  0.37181083  0.06664369  0.87738665    -0.48800
C210        C  0.37431074  0.12481629  0.79351684     0.43700
H211        H  0.41454243  0.97731817  0.89547230     0.07900
N212        N  0.43750860  0.12644006  0.88747014    -0.45500
C213        C  0.29295129  0.86641325  0.02043991     0.43600
N214        N  0.32129318  0.88788574  0.04350500     0.02500
C215        C  0.45789146  0.87113633  0.03978409    -0.05400
H216        H  0.39591353  0.78094761  0.06032894     0.07900
C217        C  0.36654484  0.81956693  0.14067306    -0.05800
Co218      Co  0.37662231  0.87583778  0.02626933     0.74200
N219        N  0.39229624  0.82268099  0.04869520    -0.25000
Co220      Co  0.41311931  0.84500284  0.07651516     0.74100
C221        C  0.37594813  0.79338076  0.13067660     0.43700
N222        N  0.33287602  0.88038752  0.12166321     0.02100
N223        N  0.39318979  0.82517879  0.10723923     0.02200
N224        N  0.43129701  0.89128916  0.00908313    -0.45800
H225        H  0.32546306  0.84710073  0.99469771     0.07900
N226        N  0.37836095  0.83488320  0.02985389     0.02500
N227        N  0.43244069  0.86780193  0.10467299     0.02200
C228        C  0.46377545  0.88562348  0.12759022     0.43800
N229        N  0.32103040  0.89253341  0.10133975    -0.24400
C230        C  0.38510979  0.93418145  0.00630831    -0.05300
N231        N  0.29525761  0.88453603  0.04014582    -0.45500
N232        N  0.45876891  0.86949641  0.10688394    -0.45700
C233        C  0.37598622  0.96055815  0.01508199     0.43600
N234        N  0.41731133  0.87788800  0.02689562     0.02400
N235        N  0.35930237  0.93394357  0.09941383    -0.24400
N236        N  0.33568001  0.87391880  0.02655230    -0.24900
N237        N  0.37341134  0.92383662  0.11942633     0.02100
H238        H  0.34807302  0.97354338  0.08691541     0.08000
H239        H  0.43301467  0.90679926  0.15498266     0.08000
N240        N  0.43204830  0.86603153  0.04536520    -0.25000
N241        N  0.37832048  0.83816477  0.12487038    -0.24600
N242        N  0.36057578  0.93082359  0.04147662     0.02500
C243        C  0.36841713  0.79383513  0.02561116     0.43900
C244        C  0.29466594  0.89170973  0.10378975    -0.05800
N245        N  0.41907690  0.88175659  0.12276895    -0.24600
H246        H  0.35273031  0.82372796  0.15679190     0.08000
N247        N  0.36388804  0.81835832  0.01563724    -0.45800
H248        H  0.28055223  0.90067080  0.08998783     0.08000
C249        C  0.37415814  0.96680538  0.12398496     0.43700
C250        C  0.31947899  0.85976854  0.01108248    -0.05300
Co251      Co  0.34035901  0.91149054  0.07146310     0.73800
N252        N  0.31474913  0.87049819  0.13857249    -0.45500
C253        C  0.45696366  0.88838215  0.01585216     0.44000
N254        N  0.36049180  0.95685412  0.03670223    -0.45500
Co255      Co  0.37597591  0.88104943  0.12349062     0.73900
C256        C  0.43742868  0.89396733  0.13822939    -0.05800
C257        C  0.38783632  0.79624269  0.04717471    -0.05400
N258        N  0.37451996  0.91713448  0.02396213    -0.24900
N259        N  0.39229202  0.79879658  0.11002118    -0.45700
H260        H  0.47495476  0.86417820  0.05121344     0.08000
C261        C  0.35854569  0.96047987  0.10072991    -0.05800
Cl262      Cl  0.37659774  0.87837321  0.07467732    -0.48800
C263        C  0.29027624  0.87721766  0.12822856     0.43700
H264        H  0.39689297  0.92857175  0.98908327     0.07900
N265        N  0.38306853  0.94319895  0.13479006    -0.45500
C266        C  0.50963453  0.79808580  0.88503545     0.43600
N267        N  0.53811588  0.82716895  0.89754665     0.02500
C268        C  0.54018580  0.96272630  0.86818260    -0.05400
H269        H  0.55002847  0.90529562  0.78706845     0.07900
C270        C  0.63550870  0.86554640  0.82350364    -0.05800
Co271      Co  0.52220534  0.88299787  0.88303876     0.74200
N272        N  0.54325906  0.89525708  0.82851082    -0.25000
Co273      Co  0.57344093  0.91428580  0.84893551     0.74100
C274        C  0.62450843  0.87480938  0.79755175     0.43700
N275        N  0.61696670  0.83430911  0.88680784     0.02100
N276        N  0.60194564  0.89198763  0.82956320     0.02200
N277        N  0.50732007  0.94166974  0.89079590    -0.45800
H278        H  0.48358558  0.83084059  0.86461169     0.07900
N279        N  0.52356539  0.88321702  0.84120963     0.02500
N280        N  0.60313708  0.93326428  0.86954892     0.02200
C281        C  0.62661976  0.96497863  0.88561109     0.43800
N282        N  0.59645826  0.82395973  0.89975232    -0.24400
C283        C  0.50535818  0.89375925  0.94273112    -0.05300
N284        N  0.53234425  0.80141410  0.89892779    -0.45500
N285        N  0.60564310  0.95956724  0.87000964    -0.45700
C286        C  0.51503380  0.88412587  0.96887218     0.43600
N287        N  0.52543496  0.92447315  0.88217722     0.02400
N288        N  0.59769517  0.86414445  0.93927521    -0.24400
N289        N  0.52027795  0.84130669  0.88408896    -0.24900
N290        N  0.61785799  0.87693468  0.92812347     0.02100
H291        H  0.58580465  0.85544469  0.97945878     0.08000
H292        H  0.65383731  0.93469041  0.90827034     0.08000
N293        N  0.54471895  0.93628120  0.86871543    -0.25000
N294        N  0.62015156  0.87746762  0.84235170    -0.24600
N295        N  0.53984588  0.86827144  0.93804661     0.02500
C296        C  0.51274767  0.88194957  0.79973840     0.43900
C297        C  0.59823212  0.79747149  0.90053758    -0.05800
N298        N  0.62121807  0.92017986  0.88392426    -0.24600
H299        H  0.65226711  0.85228036  0.82735749     0.08000
N300        N  0.50460845  0.87522826  0.82470690    -0.45800
H301        H  0.58428544  0.78434827  0.91053458     0.08000
C302        C  0.62348396  0.87982623  0.97086906     0.43700
C303        C  0.50150854  0.82467490  0.87510347    -0.05300
Co304      Co  0.56805379  0.84579106  0.91860935     0.73800
N305        N  0.63326756  0.81506711  0.87795529    -0.45500
C306        C  0.51540062  0.96626146  0.88292828     0.44000
N307        N  0.53612248  0.86817660  0.96415776    -0.45500
Co308      Co  0.62035030  0.87720245  0.88527668     0.73900
C309        C  0.63710464  0.93881071  0.89515104    -0.05800
C310        C  0.53824445  0.89535437  0.80223584    -0.05400
N311        N  0.52206737  0.88272880  0.92487731    -0.24900
N312        N  0.60387999  0.89099666  0.80327497    -0.45700
H313        H  0.55166063  0.97729378  0.85706226     0.08000
C314        C  0.59971472  0.86461684  0.96571062    -0.05800
Cl315      Cl  0.57114586  0.88002022  0.88390890    -0.48800
C316        C  0.62248032  0.79138966  0.88632281     0.43700
H317        H  0.48789170  0.90571409  0.93787261     0.07900
N318        N  0.63393727  0.88714741  0.94666408    -0.45500
C319        C  0.87314072  0.29252920  0.74962080     0.43600
N320        N  0.86801198  0.33392509  0.73978033     0.02500
C321        C  0.80700831  0.38521516  0.62729214    -0.05400
H322        H  0.89139521  0.31856890  0.60965594     0.07900
C323        C  0.94950852  0.39061172  0.66219704    -0.05800
Co324      Co  0.83452110  0.34096582  0.69155183     0.74200
N325        N  0.86909345  0.33362522  0.64359847    -0.25000
Co326      Co  0.86921970  0.37638023  0.64260996     0.74100
C327        C  0.95469201  0.37524810  0.63857247     0.43700
N328        N  0.92265771  0.38956184  0.72318603     0.02100
N329        N  0.91204833  0.37748534  0.64473690     0.02200
N330        N  0.78814732  0.36066558  0.66030941    -0.45800
H331        H  0.84782732  0.27911552  0.71403956     0.07900
N332        N  0.85563910  0.32100221  0.66258950     0.02500
N333        N  0.86925377  0.41924192  0.64393655     0.02200
C334        C  0.86607474  0.46188102  0.63658737     0.43800
N335        N  0.90903074  0.37611909  0.74128573    -0.24400
C336        C  0.78711825  0.36338172  0.72520331    -0.05300
N337        N  0.87887701  0.31759538  0.75763292    -0.45500
N338        N  0.85878461  0.43742105  0.62718220    -0.45700
C339        C  0.78474429  0.37980094  0.74898651     0.43600
N340        N  0.81440783  0.36101286  0.66221035     0.02400
N341        N  0.86722816  0.41715883  0.73982432    -0.24400
N342        N  0.85520851  0.32096914  0.72098102    -0.24900
N343        N  0.88093130  0.43031632  0.72159100     0.02100
H344        H  0.84426366  0.43004435  0.77379389     0.08000
H345        H  0.89130693  0.47125968  0.67356409     0.08000
N346        N  0.82643363  0.37501537  0.64322996    -0.25000
N347        N  0.92312457  0.39078786  0.66446990    -0.24600
N348        N  0.82614231  0.37510838  0.73920879     0.02500
C349        C  0.87069890  0.28898674  0.63873705     0.43900
C350        C  0.92603637  0.36603669  0.75941572    -0.05800
N351        N  0.88250212  0.43078555  0.66345715    -0.24600
H352        H  0.96309535  0.40044884  0.67561459     0.08000
N353        N  0.85601041  0.29468299  0.66036970    -0.45800
H354        H  0.92030405  0.35513451  0.77722062     0.08000
C355        C  0.86443201  0.46103561  0.74589137     0.43700
C356        C  0.85723029  0.29465102  0.72555014    -0.05300
Co357      Co  0.86754419  0.37551887  0.74065307     0.73800
N358        N  0.94866913  0.38987284  0.72827407    -0.45500
C359        C  0.78168651  0.37529737  0.63882488     0.44000
N360        N  0.80972476  0.38605380  0.75676979    -0.45500
Co361      Co  0.90249950  0.41045860  0.69310417     0.73900
C362        C  0.88171006  0.45722288  0.66045862    -0.05800
C363        C  0.87961042  0.31477218  0.62740354    -0.05400
N364        N  0.81349136  0.36166501  0.72063758    -0.24900
N365        N  0.93065908  0.36736285  0.62853314    -0.45700
H366        H  0.81012110  0.39759595  0.60975843     0.08000
C367        C  0.85585088  0.43492425  0.75619347    -0.05800
Cl368      Cl  0.86846902  0.37581535  0.69182608    -0.48800
C369        C  0.95240413  0.37507787  0.75067145     0.43700
H370        H  0.77167049  0.35362249  0.71383904     0.07900
N371        N  0.88031017  0.45650972  0.72478855    -0.45500
C372        C  0.88283419  0.25154767  0.81183843     0.43600
N373        N  0.86403025  0.22182839  0.83596281     0.02500
C374        C  0.88865654  0.20886316  0.97179238    -0.05400
H375        H  0.97194546  0.20243410  0.90723402     0.07900
C376        C  0.93340772  0.11968643  0.86884429    -0.05800
Co377      Co  0.87453670  0.23174246  0.89352654     0.74200
N378        N  0.92933018  0.21010842  0.90416528    -0.25000
Co379      Co  0.90852966  0.17841654  0.92148729     0.74100
C380        C  0.95949850  0.12903549  0.87848152     0.43700
N381        N  0.87337177  0.14158005  0.83759309     0.02100
N382        N  0.92812220  0.15108893  0.89764799     0.02200
N383        N  0.86487527  0.24214271  0.95221796    -0.45800
H384        H  0.89926941  0.27355345  0.84807883     0.07900
N385        N  0.91557676  0.23023202  0.89382938     0.02500
N386        N  0.88649929  0.14782666  0.93803905     0.02200
C387        C  0.86594157  0.12481108  0.96803015     0.43800
N388        N  0.86149707  0.16299949  0.82726220    -0.24400
C389        C  0.81555753  0.24891486  0.90332092    -0.05300
N390        N  0.86708316  0.22972368  0.81082882    -0.45500
N391        N  0.88367610  0.14443379  0.96413121    -0.45700
C392        C  0.78981318  0.24225433  0.89123110     0.43600
N393        N  0.87408976  0.22517350  0.93435746     0.02400
N394        N  0.81929072  0.15972598  0.86580559    -0.24400
N395        N  0.87603601  0.23771068  0.85292069    -0.24900
N396        N  0.82969285  0.13875534  0.87829121     0.02100
H397        H  0.77944899  0.17282258  0.85649206     0.08000
H398        H  0.84313464  0.10130870  0.93555382     0.08000
N399        N  0.88828767  0.20566884  0.94519808    -0.25000
N400        N  0.91503140  0.13449674  0.88199244    -0.24600
N401        N  0.82048597  0.21722314  0.87465166     0.02500
C402        C  0.95601466  0.24053921  0.88595381     0.43900
C403        C  0.86292050  0.16232800  0.80052654    -0.05800
N404        N  0.87156936  0.13172558  0.92350987    -0.24600
H405        H  0.92912925  0.10450461  0.85421718     0.08000
N406        N  0.93071249  0.24865342  0.88277261    -0.45800
H407        H  0.85419479  0.17694971  0.78706332     0.08000
C408        C  0.78686560  0.13350598  0.87922782     0.43700
C409        C  0.88841323  0.25711182  0.83948052    -0.05300
Co410      Co  0.84125103  0.19047130  0.85053477     0.73800
N411        N  0.88345400  0.12598031  0.81846414    -0.45500
C412        C  0.87294805  0.23306146  0.97638141     0.44000
N413        N  0.79456931  0.22262747  0.87351269    -0.45500
Co414      Co  0.87236674  0.13536503  0.88039511     0.73900
C415        C  0.85766391  0.11622333  0.94096221    -0.05800
C416        C  0.95554119  0.21510861  0.90074159    -0.05400
N417        N  0.83320733  0.23249707  0.89167158    -0.24900
N418        N  0.95443518  0.14847268  0.89619232    -0.45700
H419        H  0.90008266  0.19685565  0.98586432     0.08000
C420        C  0.79279551  0.15805196  0.86520441    -0.05800
Cl421      Cl  0.87414465  0.18380671  0.88645914    -0.48800
C422        C  0.87742388  0.13782148  0.79449424     0.43700
H423        H  0.82062081  0.26479619  0.91693079     0.07900
N424        N  0.81062126  0.12241601  0.88714248    -0.45500
C425        C  0.72782338  0.47071255  0.89202788     0.43600
N426        N  0.70657715  0.43763951  0.90833975     0.02500
C427        C  0.72198583  0.30376327  0.87948565    -0.05400
H428        H  0.70980336  0.36434979  0.79488176     0.07900
C429        C  0.61712302  0.39015295  0.82870717    -0.05800
Co430      Co  0.72949373  0.38517665  0.89235970     0.74200
N431        N  0.71304651  0.37237593  0.83700469    -0.25000
Co432      Co  0.68432080  0.34888031  0.85587079     0.74100
C433        C  0.62909039  0.38205989  0.80299294     0.43700
N434        N  0.63113132  0.42295079  0.89296215     0.02100
N435        N  0.65403280  0.36858818  0.83533094     0.02200
N436        N  0.75050867  0.32933195  0.90304819    -0.45800
H437        H  0.75771912  0.44281054  0.87047535     0.07900
N438        N  0.72995884  0.38661983  0.85104979     0.02500
N439        N  0.65545072  0.32626025  0.87515340     0.02200
C440        C  0.63208038  0.29289057  0.88823099     0.43800
N441        N  0.64902855  0.43414397  0.90850057    -0.24400
C442        C  0.74486834  0.37119800  0.95074048    -0.05300
N443        N  0.70755554  0.46406604  0.90828630    -0.45500
N444        N  0.65416048  0.29981122  0.87455426    -0.45700
C445        C  0.73350032  0.37658455  0.97705333     0.43600
N446        N  0.73201074  0.34399809  0.89102352     0.02400
N447        N  0.65064599  0.39200415  0.94618652    -0.24400
N448        N  0.72559617  0.42647863  0.89398055    -0.24900
N449        N  0.63209295  0.37835209  0.93366046     0.02100
H450        H  0.66010307  0.39971902  0.98688503     0.08000
H451        H  0.60124650  0.32058979  0.90869324     0.08000
N452        N  0.71494685  0.32970730  0.87719424    -0.25000
N453        N  0.63398537  0.38074083  0.84773481    -0.24600
N454        N  0.70865116  0.39435683  0.94728417     0.02500
C455        C  0.74267336  0.39230257  0.81059291     0.43900
C456        C  0.64540408  0.46031700  0.90948615    -0.05800
N457        N  0.63536860  0.33754924  0.88826729    -0.24600
H458        H  0.59834473  0.40036009  0.83235374     0.08000
N459        N  0.74816421  0.39856736  0.83609687    -0.45800
H460        H  0.65761326  0.47378955  0.92089563     0.08000
C461        C  0.62484991  0.37284351  0.97606258     0.43700
C462        C  0.74018042  0.44583063  0.88275592    -0.05300
Co463      Co  0.67868965  0.41458479  0.92779311     0.73800
N464        N  0.61528404  0.44157025  0.88182306    -0.45500
C465        C  0.74546110  0.30376287  0.89699001     0.44000
N466        N  0.71144151  0.39163947  0.97343570    -0.45500
Co467      Co  0.63189727  0.37992357  0.89052229     0.73900
C468        C  0.61953195  0.31783115  0.89749835    -0.05800
C469        C  0.71940506  0.37474035  0.81106161    -0.05400
N470        N  0.72806818  0.38304183  0.93363972    -0.24900
N471        N  0.65181646  0.36885379  0.80896637    -0.45700
H472        H  0.71213253  0.28721946  0.86993483     0.08000
C473        C  0.64762285  0.38995923  0.97240335    -0.05800
Cl474      Cl  0.68093248  0.38208961  0.89152496    -0.48800
C475        C  0.62346885  0.46563164  0.89174218     0.43700
H476        H  0.76317100  0.36092836  0.94538790     0.07900
N477        N  0.61601369  0.36602677  0.95115674    -0.45500
C478        C  0.01133175  0.28872347  0.89548036     0.43600
N479        N  0.03685164  0.32018543  0.90782691     0.02500
C480        C  0.03251321  0.45299541  0.86723275    -0.05400
H481        H  0.03453823  0.38863450  0.79008734     0.07900
C482        C  0.12799948  0.35671868  0.82334212    -0.05800
Co483      Co  0.01797859  0.37417789  0.88985216     0.74200
N484        N  0.03345439  0.38224086  0.83285706    -0.25000
Co485      Co  0.06498145  0.40388394  0.84924039     0.74100
C486        C  0.11512184  0.36363722  0.79746707     0.43700
N487        N  0.11374687  0.32861661  0.88980604     0.02100
N488        N  0.09289213  0.38092328  0.82978790     0.02200
N489        N  0.00189651  0.43341915  0.89412381    -0.45800
H490        H  0.98277259  0.31847467  0.87407998     0.07900
N491        N  0.01591382  0.37056209  0.84869590     0.02500
N492        N  0.09556387  0.42555852  0.86620035     0.02200
C493        C  0.11849070  0.45917191  0.87911547     0.43800
N494        N  0.09509218  0.31847081  0.90548407    -0.24400
C495        C  0.00489101  0.39018698  0.94841623    -0.05300
N496        N  0.03335289  0.29404658  0.90966658    -0.45500
N497        N  0.09706996  0.45198256  0.86484499    -0.45700
C498        C  0.01560305  0.38306684  0.97478827     0.43600
N499        N  0.01938423  0.41570112  0.88512428     0.02400
N500        N  0.09741926  0.36179253  0.94214913    -0.24400
N501        N  0.01796942  0.33259750  0.89412568    -0.24900
N502        N  0.11632749  0.37452349  0.92893351     0.02100
H503        H  0.08763211  0.35560353  0.98323017     0.08000
H504        H  0.14766020  0.43151191  0.90254800     0.08000
N505        N  0.03726321  0.42669175  0.86922511    -0.25000
N506        N  0.11276046  0.36857636  0.84239929    -0.24600
N507        N  0.03947445  0.36458340  0.94458791     0.02500
C508        C  0.00013382  0.36472746  0.80942943     0.43900
C509        C  0.09678312  0.29186981  0.90590849    -0.05800
N510        N  0.11473127  0.41421314  0.88068214    -0.24600
H511        H  0.14607313  0.34527483  0.82694977     0.08000
N512        N  0.99575697  0.35999543  0.83555410    -0.45800
H513        H  0.08378060  0.27872990  0.91709138     0.08000
C514        C  0.12382786  0.38081799  0.97139374     0.43700
C515        C  0.00076313  0.31427909  0.88534701    -0.05300
Co516      Co  0.06730047  0.34112337  0.92512387     0.73800
N517        N  0.12819323  0.30922228  0.87842448    -0.45500
C518        C  0.00925170  0.45742320  0.88390932     0.44000
N519        N  0.03671786  0.36679054  0.97076136    -0.45500
Co520      Co  0.11575454  0.37152002  0.88542482     0.73900
C521        C  0.13034120  0.43411632  0.88985490    -0.05800
C522        C  0.02512368  0.37975787  0.80744308    -0.05400
N523        N  0.02088954  0.37763098  0.93108791    -0.24900
N524        N  0.09366174  0.37861275  0.80350933    -0.45700
H525        H  0.04308007  0.46689372  0.85443407     0.08000
C526        C  0.10064484  0.36425850  0.96831509    -0.05800
Cl527      Cl  0.06665324  0.37267379  0.88734585    -0.48800
C528        C  0.11843777  0.28549566  0.88792912     0.43700
H529        H  0.98700028  0.40129402  0.94316095     0.07900
N530        N  0.13275449  0.38679318  0.94603716    -0.45500
C531        C  0.79258595  0.36559302  0.01842614     0.43600
N532        N  0.81911790  0.38789674  0.04264979     0.02500
C533        C  0.95602285  0.37235923  0.04213158    -0.05400
H534        H  0.89677371  0.28200723  0.05028170     0.07900
C535        C  0.86071994  0.31488171  0.13525298    -0.05800
Co536      Co  0.87541965  0.37958294  0.02577023     0.74200
N537        N  0.89088344  0.32450498  0.04371687    -0.25000
Co538      Co  0.90969757  0.34428820  0.07457494     0.74100
C539        C  0.86943607  0.28936283  0.12347328     0.43700
N540        N  0.82828900  0.37591142  0.12082988     0.02100
N541        N  0.88824263  0.32213869  0.10279192     0.02200
N542        N  0.93140965  0.39620428  0.01235138    -0.45800
H543        H  0.82625275  0.35055535  0.99143250     0.07900
N544        N  0.87823182  0.33829763  0.02505428     0.02500
N545        N  0.92801488  0.36456771  0.10506365     0.02200
C546        C  0.95893967  0.38183615  0.12890480     0.43800
N547        N  0.81654231  0.38865570  0.10083994    -0.24400
C548        C  0.88290335  0.44043906  0.01235861    -0.05300
N549        N  0.79348602  0.38243717  0.03931821    -0.45500
N550        N  0.95427961  0.36658999  0.10750750    -0.45700
C551        C  0.87199700  0.46538328  0.02333020     0.43600
N552        N  0.91620141  0.38203556  0.02854283     0.02400
N553        N  0.85390875  0.43074232  0.10287585    -0.24400
N554        N  0.83449833  0.37640067  0.02468710    -0.24900
N555        N  0.86836840  0.41963015  0.12208850     0.02100
H556        H  0.84220495  0.47079275  0.09277010     0.08000
H557        H  0.92765271  0.40173643  0.15669497     0.08000
N558        N  0.92986519  0.36793293  0.04630464    -0.25000
N559        N  0.87342187  0.33411702  0.12117820    -0.24600
N560        N  0.85650938  0.43231234  0.04528957     0.02500
C561        C  0.87205395  0.29757687  0.01445508     0.43900
C562        C  0.79015622  0.38801650  0.10336200    -0.05800
N563        N  0.91430230  0.37762290  0.12352412    -0.24600
H564        H  0.84660104  0.31828974  0.15127253     0.08000
N565        N  0.86679569  0.32294254  0.00716677    -0.45800
H566        H  0.77608493  0.39790375  0.09012676     0.08000
C567        C  0.86890315  0.46224344  0.12904629     0.43700
C568        C  0.81939083  0.36204666  0.00832990    -0.05300
Co569      Co  0.83624770  0.40996405  0.07285361     0.73800
N570        N  0.81015062  0.36586200  0.13762062    -0.45500
C571        C  0.95674697  0.39151010  0.01979008     0.44000
N572        N  0.85541820  0.45864339  0.04325335    -0.45500
Co573      Co  0.87126101  0.37677014  0.12319403     0.73900
C574        C  0.93237588  0.38939906  0.13965667    -0.05800
C575        C  0.88846938  0.29829061  0.03852836    -0.05400
N576        N  0.87209472  0.42106318  0.02740540    -0.24900
N577        N  0.88638960  0.29564755  0.10347018    -0.45700
H578        H  0.97233740  0.36335970  0.05325282     0.08000
C579        C  0.85280903  0.45708958  0.10582714    -0.05800
Cl580      Cl  0.87321819  0.37764267  0.07429590    -0.48800
C581        C  0.78571819  0.37308579  0.12758527     0.43700
H582        H  0.89591441  0.43734712  0.99539076     0.07900
N583        N  0.87817837  0.43814578  0.13836686    -0.45500
C584        C  0.85523060  0.50601298  0.80380452     0.43600
N585        N  0.87812851  0.52981923  0.83047024     0.02500
C586        C  0.86075351  0.53640511  0.96632666    -0.05400
H587        H  0.77060732  0.55364075  0.90496795     0.07900
C588        C  0.81312723  0.63224366  0.86891215    -0.05800
Co589      Co  0.86415171  0.51664797  0.88645162     0.74200
N590        N  0.81206753  0.54179073  0.90005849    -0.25000
Co591      Co  0.83568236  0.56978604  0.91892940     0.74100
C592        C  0.78680651  0.62370083  0.87929407     0.43700
N593        N  0.87403942  0.60910741  0.83664337     0.02100
N594        N  0.81774531  0.59973289  0.89700045     0.02200
N595        N  0.87964671  0.50298463  0.94253625    -0.45800
H596        H  0.83432807  0.48390053  0.83783858     0.07900
N597        N  0.82349194  0.52201384  0.88710495     0.02500
N598        N  0.85929579  0.59788427  0.93658008     0.02200
C599        C  0.87847118  0.62037815  0.96721689     0.43800
N600        N  0.88592264  0.58800261  0.82599991    -0.24400
C601        C  0.91938889  0.49313445  0.89803045    -0.05300
N602        N  0.87459129  0.52478168  0.80472729    -0.45500
N603        N  0.86104225  0.60074239  0.96273735    -0.45700
C604        C  0.94643420  0.49877512  0.89012640     0.43600
N605        N  0.86596449  0.51951243  0.92712077     0.02400
N606        N  0.92701300  0.58633108  0.86615789    -0.24400
N607        N  0.86294006  0.51478282  0.84581235    -0.24900
N608        N  0.91674026  0.60754800  0.87819728     0.02100
H609        H  0.96722874  0.57325118  0.85754419     0.08000
H610        H  0.90190510  0.64515993  0.93576446     0.08000
N611        N  0.85501027  0.53948522  0.94022855    -0.25000
N612        N  0.83128263  0.61615378  0.88121665    -0.24600
N613        N  0.92052880  0.52723984  0.87122921     0.02500
C614        C  0.78201630  0.51726871  0.87920248     0.43900
C615        C  0.88499147  0.58959890  0.79937459    -0.05800
N616        N  0.87445325  0.61454219  0.92265869    -0.24600
H617        H  0.81764792  0.64781847  0.85452624     0.08000
N618        N  0.80627548  0.50685476  0.87451675    -0.45800
H619        H  0.89319912  0.57493785  0.78580725     0.08000
C620        C  0.95968635  0.61239162  0.88017111     0.43700
C621        C  0.84793714  0.49907588  0.83075642    -0.05300
Co622      Co  0.90339041  0.55777005  0.84814888     0.73800
N623        N  0.86435477  0.62543901  0.81768507    -0.45500
C624        C  0.87775971  0.51248586  0.96733625     0.44000
N625        N  0.94602542  0.51986654  0.87297424    -0.45500
Co626      Co  0.87415858  0.61313095  0.87956690     0.73900
C627        C  0.88767853  0.62967638  0.94059990    -0.05800
C628        C  0.78545741  0.54012986  0.89683754    -0.05400
N629        N  0.90480521  0.51173411  0.88552689    -0.24900
N630        N  0.79161232  0.60355826  0.89642510    -0.45700
H631        H  0.85493701  0.54977764  0.98221647     0.08000
C632        C  0.95375547  0.58765186  0.86641719    -0.05800
Cl633      Cl  0.86949857  0.56481624  0.88322824    -0.48800
C634        C  0.87077486  0.61428017  0.79363909     0.43700
H635        H  0.91185383  0.47708402  0.91046330     0.07900
N636        N  0.93581137  0.62367382  0.88705808    -0.45500
C637        C  0.79113323  0.87977469  0.13847643     0.43600
N638        N  0.83385353  0.87396204  0.14312899     0.02500
C639        C  0.89557462  0.81986818  0.25403966    -0.05400
H640        H  0.83237180  0.89864812  0.27457438     0.07900
C641        C  0.88867824  0.95764420  0.21918399    -0.05800
Co642      Co  0.84436515  0.84079449  0.19233204     0.74200
N643        N  0.84057884  0.87665908  0.23873544    -0.25000
Co644      Co  0.88128799  0.87696424  0.23632529     0.74100
C645        C  0.87093753  0.95874432  0.24239245     0.43700
N646        N  0.89180780  0.93002505  0.15686291     0.02100
N647        N  0.88019315  0.91799885  0.23416387     0.02200
N648        N  0.86973009  0.79547890  0.22645586    -0.45800
H649        H  0.78226326  0.85494571  0.17627351     0.07900
N650        N  0.82573973  0.86249420  0.22257204     0.02500
N651        N  0.92196670  0.87688326  0.23397081     0.02200
C652        C  0.96280613  0.87094967  0.24452973     0.43800
N653        N  0.87723786  0.91702832  0.13922456    -0.24400
C654        C  0.86386331  0.79309080  0.16018209    -0.05300
N655        N  0.81543438  0.88577480  0.12767535    -0.45500
N656        N  0.93772249  0.86518697  0.25160278    -0.45700
C657        C  0.87901610  0.78816022  0.13604373     0.43600
N658        N  0.86764699  0.82145342  0.22118081     0.02400
N659        N  0.91977372  0.87406369  0.13946595    -0.24400
N660        N  0.82269547  0.86102109  0.16339034    -0.24900
N661        N  0.93268582  0.88890802  0.15696507     0.02100
H662        H  0.93461003  0.84632924  0.10966577     0.08000
H663        H  0.97710872  0.89762713  0.20942466     0.08000
N664        N  0.88211898  0.83594011  0.23744514    -0.25000
N665        N  0.89287491  0.93137989  0.21536753    -0.24600
N666        N  0.87594202  0.83097326  0.14233165     0.02500
C667        C  0.79881540  0.87806397  0.25186252     0.43900
C668        C  0.86446777  0.93573610  0.12416064    -0.05800
N669        N  0.93496210  0.89032471  0.21551033    -0.24600
H670        H  0.89656022  0.97375526  0.20703872     0.08000
N671        N  0.80033087  0.86205743  0.23018783    -0.45800
H672        H  0.85052778  0.93169247  0.10821292     0.08000
C673        C  0.96460654  0.86939022  0.13600358     0.43700
C674        C  0.79615523  0.86342760  0.16205213    -0.05300
Co675      Co  0.87671996  0.87397441  0.13962313     0.73800
N676        N  0.88994511  0.95638208  0.15482394    -0.45500
C677        C  0.88767343  0.79326864  0.24658808     0.44000
N678        N  0.88612209  0.81256202  0.12592887    -0.45500
Co679      Co  0.91348561  0.91057491  0.18603370     0.73900
C680        C  0.96125232  0.88811635  0.22064033    -0.05800
C681        C  0.82531417  0.88755652  0.25755351    -0.05400
N682        N  0.86309532  0.81966049  0.16250021    -0.24900
N683        N  0.86691545  0.93355409  0.25071670    -0.45700
H684        H  0.90810033  0.82610236  0.27040362     0.08000
C685        C  0.93856388  0.86070144  0.12518194    -0.05800
Cl686      Cl  0.87888597  0.87553796  0.18812054    -0.48800
C687        C  0.87317489  0.96185734  0.13462229     0.43700
H688        H  0.85488816  0.77906422  0.17400194     0.07900
N689        N  0.95895702  0.88669663  0.15553906    -0.45500
C690        C  0.86911978  0.74075843  0.29578729     0.43600
N691        N  0.85349948  0.71706849  0.32756999     0.02500
C692        C  0.88817658  0.72107982  0.46116787    -0.05400
H693        H  0.96863075  0.71211890  0.40264273     0.07900
C694        C  0.93230571  0.62257264  0.36670678    -0.05800
Co695      Co  0.87184910  0.73513185  0.38102303     0.74200
N696        N  0.92699999  0.71603764  0.39192784    -0.25000
Co697      Co  0.90744122  0.68605018  0.41328416     0.74100
C698        C  0.95821468  0.63411454  0.37478826     0.43700
N699        N  0.86736034  0.63931846  0.33703171     0.02100
N700        N  0.92617981  0.65709083  0.39144127     0.02200
N701        N  0.86511622  0.75292102  0.43840800    -0.45800
H702        H  0.89229003  0.76750647  0.32505211     0.07900
N703        N  0.91339672  0.73469534  0.37894121     0.02500
N704        N  0.88778316  0.65655619  0.43419732     0.02200
C705        C  0.87333555  0.63328241  0.46706245     0.43800
N706        N  0.85279754  0.65878640  0.32635649    -0.24400
C707        C  0.81523929  0.74829199  0.40105756    -0.05300
N708        N  0.85277852  0.72030531  0.30133712    -0.45500
N709        N  0.88812929  0.65457892  0.46053349    -0.45700
C710        C  0.78907109  0.73669585  0.39821362     0.43600
N711        N  0.87465941  0.73445482  0.42225357     0.02400
N712        N  0.81491542  0.65806339  0.36918265    -0.24400
N713        N  0.86861125  0.73469732  0.33966343    -0.24900
N714        N  0.82724939  0.63827521  0.38177427     0.02100
H715        H  0.77403640  0.66864388  0.36183308     0.08000
H716        H  0.85066404  0.60488226  0.43882656     0.08000
N717        N  0.88819409  0.71561727  0.43493436    -0.25000
N718        N  0.91339457  0.63822627  0.37828234    -0.24600
N719        N  0.81607733  0.71622065  0.37247244     0.02500
C720        C  0.95410266  0.74798063  0.37737810     0.43900
C721        C  0.85256418  0.65668590  0.29981759    -0.05800
N722        N  0.87355740  0.63779745  0.42241008    -0.24600
H723        H  0.92852329  0.60509643  0.35472730     0.08000
N724        N  0.92876100  0.75441459  0.37032156    -0.45800
H725        H  0.84211060  0.67002930  0.28626461     0.08000
C726        C  0.78464917  0.63126844  0.38652338     0.43700
C727        C  0.87946162  0.75068643  0.32113898    -0.05300
Co728      Co  0.83401851  0.68764084  0.34866228     0.73800
N729        N  0.87789500  0.62369572  0.31818331    -0.45500
C730        C  0.87246305  0.74574258  0.46325999     0.44000
N731        N  0.79062117  0.71734056  0.37967808    -0.45500
Co732      Co  0.87047348  0.63710932  0.37988447     0.73900
C733        C  0.86338449  0.62201828  0.44186401    -0.05800
C734        C  0.95296702  0.72255639  0.39180616    -0.05400
N735        N  0.83077557  0.73416226  0.38462354    -0.24900
N736        N  0.95242215  0.65529297  0.38992377    -0.45700
H737        H  0.89868315  0.70983991  0.47649154     0.08000
C738        C  0.78854734  0.65526417  0.37083503    -0.05800
Cl739      Cl  0.87105472  0.68631026  0.38065513    -0.48800
C740        C  0.86923480  0.63365240  0.29418451     0.43700
H741        H  0.82153559  0.76424384  0.41397480     0.07900
N742        N  0.80956103  0.62156649  0.39289290    -0.45500
C743        C  0.75932812  0.93769291  0.37178020     0.43600
N744        N  0.72735828  0.91571863  0.39032266     0.02500
C745        C  0.70617571  0.78027178  0.37365441    -0.05400
H746        H  0.70371812  0.83735442  0.28594284     0.07900
C747        C  0.62512980  0.88687064  0.32222881    -0.05800
Co748      Co  0.73529610  0.85724910  0.38124659     0.74200
N749        N  0.71292909  0.84515227  0.32732518    -0.25000
Co750      Co  0.68099140  0.83136106  0.34853454     0.74100
C751        C  0.63497402  0.87673132  0.29640761     0.43700
N752        N  0.64587780  0.91655454  0.38310166     0.02100
N753        N  0.65528730  0.85650369  0.32826521     0.02200
N754        N  0.74015100  0.79837727  0.39681966    -0.45800
H755        H  0.77878258  0.89963993  0.35529221     0.07900
N756        N  0.73392800  0.85489164  0.33954653     0.02500
N757        N  0.64978894  0.81687387  0.36934703     0.02200
C758        C  0.62348515  0.78737446  0.38502913     0.43800
N759        N  0.66766944  0.92629524  0.39418817    -0.24400
C760        C  0.75289761  0.84986183  0.44124704    -0.05300
N761        N  0.73718791  0.94024543  0.38739328    -0.45500
N762        N  0.64463819  0.79112260  0.36942847    -0.45700
C763        C  0.74571626  0.86309059  0.46646087     0.43600
N764        N  0.72628725  0.81692456  0.38397390     0.02400
N765        N  0.66322459  0.88755052  0.43715103    -0.24400
N766        N  0.74240998  0.89766284  0.37825906    -0.24900
N767        N  0.64212008  0.87586791  0.42653649     0.02100
H768        H  0.67548337  0.89508692  0.47768386     0.08000
H769        H  0.59924958  0.81968477  0.40805998     0.08000
N770        N  0.70632192  0.80687733  0.37031456    -0.25000
N771        N  0.63890283  0.87299554  0.34098627    -0.24600
N772        N  0.72093660  0.87826571  0.43497199     0.02500
C773        C  0.74344276  0.85645817  0.29789971     0.43900
C774        C  0.66666646  0.95306724  0.39381195    -0.05800
N775        N  0.63338935  0.83153004  0.38394024    -0.24600
H776        H  0.61038231  0.90229387  0.32607490     0.08000
N777        N  0.75286179  0.86202677  0.32253451    -0.45800
H778        H  0.68114990  0.96611357  0.40289490     0.08000
C779        C  0.63588918  0.87371499  0.46949579     0.43700
C780        C  0.76275482  0.90963321  0.36590411    -0.05300
Co781      Co  0.69483907  0.90242332  0.41414289     0.73800
N782        N  0.62950936  0.93606051  0.37486944    -0.45500
C783        C  0.72830018  0.77477652  0.39163787     0.44000
N784        N  0.72601985  0.88054319  0.46073466    -0.45500
Co785      Co  0.63892015  0.87427830  0.38378923     0.73900
C786        C  0.61566188  0.81425789  0.39507007    -0.05800
C787        C  0.71721084  0.84489568  0.30093301    -0.05400
N788        N  0.73642077  0.86070803  0.42290255    -0.24900
N789        N  0.65357932  0.85807673  0.30192669    -0.45700
H790        H  0.69257526  0.76647987  0.36430551     0.08000
C791        C  0.66097408  0.88722714  0.46388525    -0.05800
Cl792      Cl  0.68737296  0.86650434  0.38193591    -0.48800
C793        C  0.64136725  0.95961803  0.38112655     0.43700
H794        H  0.76904195  0.83601667  0.43701949     0.07900
N795        N  0.62527223  0.86715291  0.44532973    -0.45500
C796        C  0.99222406  0.81397491  0.37300869     0.43600
N797        N  0.02130692  0.83885272  0.39190999     0.02500
C798        C  0.04091707  0.97377738  0.37225990    -0.05400
H799        H  0.05255665  0.91400271  0.28516980     0.07900
C800        C  0.12726055  0.86865714  0.32771981    -0.05800
Co801      Co  0.01212493  0.89638281  0.37767351     0.74200
N802        N  0.03894079  0.90756013  0.32564445    -0.25000
Co803      Co  0.06842435  0.92322987  0.34875294     0.74100
C804        C  0.11926830  0.87870078  0.30101566     0.43700
N805        N  0.10205388  0.83923323  0.38889594     0.02100
N806        N  0.09623582  0.89847818  0.33113402     0.02200
N807        N  0.00423773  0.95556680  0.39107572    -0.45800
H808        H  0.97227210  0.84986181  0.35200408     0.07900
N809        N  0.01741963  0.89668849  0.33612350     0.02500
N810        N  0.09782202  0.93872567  0.37162623     0.02200
C811        C  0.12244619  0.96836511  0.38926141     0.43800
N812        N  0.07980429  0.82983989  0.39956044    -0.24400
C813        C  0.99359891  0.90986214  0.43618551    -0.05300
N814        N  0.01310248  0.81369226  0.39023319    -0.45500
N815        N  0.10263473  0.96456237  0.37199154    -0.45700
C816        C  0.00142151  0.90048245  0.46281874     0.43600
N817        N  0.01865698  0.93740211  0.37826997     0.02400
N818        N  0.08153345  0.86980908  0.44060038    -0.24400
N819        N  0.00656639  0.85538789  0.37734041    -0.24900
N820        N  0.10322050  0.88100493  0.43051816     0.02100
H821        H  0.06769384  0.86262573  0.48089416     0.08000
H822        H  0.14519906  0.93619288  0.41425338     0.08000
N823        N  0.04035553  0.94750306  0.36736137    -0.25000
N824        N  0.11180118  0.88219863  0.34528004    -0.24600
N825        N  0.02416219  0.87940933  0.43368514     0.02500
C826        C  0.01331952  0.89244173  0.29386781     0.43900
C827        C  0.08068819  0.80314088  0.40067725    -0.05800
N828        N  0.11341900  0.92423333  0.38744179    -0.24600
H829        H  0.14212502  0.85366132  0.33286893     0.08000
N830        N  0.00124570  0.88727750  0.31757805    -0.45800
H831        H  0.06569857  0.79046061  0.40969512     0.08000
C832        C  0.10773269  0.88364856  0.47355207     0.43700
C833        C  0.98780937  0.84149840  0.36462511    -0.05300
Co834      Co  0.05153577  0.85412022  0.41652034     0.73800
N835        N  0.11878818  0.81945449  0.38256384    -0.45500
C836        C  0.01689861  0.97907561  0.38766103     0.44000
N837        N  0.02006370  0.88135198  0.45963801    -0.45500
Co838      Co  0.10872427  0.88157532  0.38810386     0.73900
C839        C  0.12990217  0.94155805  0.39987821    -0.05800
C840        C  0.03784393  0.90634802  0.29903452    -0.05400
N841        N  0.00897130  0.89570204  0.41935942    -0.24900
N842        N  0.10005076  0.89703725  0.30501903    -0.45700
H843        H  0.05658485  0.98743285  0.36657465     0.08000
C844        C  0.08270283  0.87039074  0.46740661    -0.05800
Cl845      Cl  0.06035617  0.88869547  0.38275890    -0.48800
C846        C  0.10649669  0.79621605  0.38962054     0.43700
H847        H  0.97871071  0.92462494  0.43053462     0.07900
N848        N  0.11938590  0.88976715  0.44966029    -0.45500
C849        C  0.88225258  0.01412070  0.28921330     0.43600
N850        N  0.89870942  0.03690963  0.32093467     0.02500
C851        C  0.87582766  0.02326792  0.45600410    -0.05400
H852        H  0.78951298  0.03506434  0.40245050     0.07900
C853        C  0.82006797  0.12585419  0.37088963    -0.05800
Co854      Co  0.88560200  0.01404673  0.37444759     0.74200
N855        N  0.83059172  0.03092590  0.39010530    -0.25000
Co856      Co  0.85017564  0.05979871  0.41178108     0.74100
C857        C  0.79493493  0.11334156  0.37992686     0.43700
N858        N  0.88288654  0.11329713  0.33600294     0.02100
N859        N  0.82833870  0.08964409  0.39305428     0.02200
N860        N  0.89856414  0.99398792  0.43014541    -0.45800
H861        H  0.86295523  0.98428757  0.31885742     0.07900
N862        N  0.84355041  0.01303990  0.37572850     0.02500
N863        N  0.86959794  0.08859390  0.43320355     0.02200
C864        C  0.88185121  0.11210963  0.46639149     0.43800
N865        N  0.89747490  0.09528097  0.32336174    -0.24400
C866        C  0.94556971  0.00223877  0.38880369    -0.05300
N867        N  0.89782929  0.03517028  0.29459497    -0.45500
N868        N  0.86894411  0.08981487  0.45957050    -0.45700
C869        C  0.97089407  0.01598327  0.38455450     0.43600
N870        N  0.88605411  0.01228509  0.41561270     0.02400
N871        N  0.93825649  0.09447293  0.36356806    -0.24400
N872        N  0.88549419  0.01767100  0.33316447    -0.24900
N873        N  0.92589586  0.11258357  0.37823815     0.02100
H874        H  0.97919767  0.08626207  0.35371323     0.08000
H875        H  0.90099562  0.14374521  0.43845933     0.08000
N876        N  0.87263343  0.02968526  0.43011824    -0.25000
N877        N  0.83985184  0.10974546  0.38019019    -0.24600
N878        N  0.93982671  0.03588125  0.36223936     0.02500
C879        C  0.80245912  0.00058829  0.37536360     0.43900
C880        C  0.89578162  0.09908813  0.29707202    -0.05800
N881        N  0.88198388  0.10892962  0.42163898    -0.24600
H882        H  0.82283835  0.14429651  0.35981994     0.08000
N883        N  0.82745019  0.99402596  0.36691394    -0.45800
H884        H  0.90574944  0.08695739  0.28228348     0.08000
C885        C  0.96843659  0.12067733  0.38187788     0.43700
C886        C  0.87425760  0.00221033  0.31475931    -0.05300
Co887      Co  0.91879986  0.06561288  0.34228767     0.73800
N888        N  0.87021171  0.12947513  0.31871588    -0.45500
C889        C  0.89338950  0.99974822  0.45578103     0.44000
N890        N  0.96552179  0.03677706  0.36817384    -0.45500
Co891      Co  0.88263047  0.11230998  0.37904560     0.73900
C892        C  0.89072255  0.12498543  0.44130789    -0.05800
C893        C  0.80460092  0.02492196  0.39072484    -0.05400
N894        N  0.92740957  0.01614867  0.37447180    -0.24900
N895        N  0.80190449  0.09106915  0.39340685    -0.45700
H896        H  0.86662572  0.03345854  0.47267460     0.08000
C897        C  0.96460532  0.09817892  0.36433301    -0.05800
Cl898      Cl  0.88422701  0.06309713  0.37687884    -0.48800
C899        C  0.87766288  0.12153647  0.29368677     0.43700
H900        H  0.94134030  0.98600469  0.40248244     0.07900
N901        N  0.94349255  0.12878990  0.38991790    -0.45500
C902        C  0.80551305  0.85917653  0.51245805     0.43600
N903        N  0.82947486  0.88139130  0.53981004     0.02500
C904        C  0.96632681  0.86599439  0.55086841    -0.05400
H905        H  0.91136142  0.77605774  0.56154962     0.07900
C906        C  0.86398509  0.81480095  0.64096046    -0.05800
Co907      Co  0.88689674  0.87062587  0.52930363     0.74200
N908        N  0.90193827  0.81752456  0.55260892    -0.25000
Co909      Co  0.91772604  0.84032927  0.58288304     0.74100
C910        C  0.87422930  0.78866275  0.63173651     0.43700
N911        N  0.83251079  0.87559966  0.61988493     0.02100
N912        N  0.89429932  0.82043169  0.61083947     0.02200
N913        N  0.94283378  0.88639805  0.51797624    -0.45800
H914        H  0.84199222  0.84064626  0.49217284     0.07900
N915        N  0.88985966  0.82935015  0.53235717     0.02500
N916        N  0.93309072  0.86326773  0.61280581     0.02200
C917        C  0.96222267  0.88288842  0.63696885     0.43800
N918        N  0.82247281  0.88718346  0.59828135    -0.24400
C919        C  0.89544554  0.92895551  0.50918848    -0.05300
N920        N  0.80427830  0.87730013  0.53251764    -0.45500
N921        N  0.95900462  0.86586369  0.61672548    -0.45700
C922        C  0.88436174  0.95518333  0.51602946     0.43600
N923        N  0.92710738  0.87361952  0.53464056     0.02400
N924        N  0.86110802  0.92957801  0.60008996    -0.24400
N925        N  0.84645115  0.86771778  0.52502694    -0.24900
N926        N  0.87334327  0.91912368  0.62119672     0.02100
H927        H  0.85411228  0.96999777  0.58636711     0.08000
H928        H  0.92907877  0.90457589  0.66106507     0.08000
N929        N  0.93997295  0.86155860  0.55429967    -0.25000
N930        N  0.87764071  0.83341964  0.62687089    -0.24600
N931        N  0.86772835  0.92555912  0.54196022     0.02500
C932        C  0.88823709  0.78763981  0.52336892     0.43900
C933        C  0.79590117  0.88657967  0.59880259    -0.05800
N934        N  0.91809009  0.87750641  0.62926748    -0.24600
H935        H  0.84837696  0.81892735  0.65536178     0.08000
N936        N  0.88154016  0.81223972  0.51433210    -0.45800
H937        H  0.78291698  0.89534685  0.58379872     0.08000
C938        C  0.87697127  0.96214680  0.62545807     0.43700
C939        C  0.83321060  0.85310799  0.50740674    -0.05300
Co940      Co  0.84480403  0.90615345  0.57001767     0.73800
N941        N  0.81301641  0.86660366  0.63578422    -0.45500
C942        C  0.96787040  0.88303116  0.52685738     0.44000
N943        N  0.86703107  0.95142977  0.53625016    -0.45500
Co944      Co  0.87528419  0.87638611  0.62564761     0.73900
C945        C  0.93498059  0.89086353  0.64552482    -0.05800
C946        C  0.90221453  0.79096527  0.54862625    -0.05400
N947        N  0.88388647  0.91195775  0.52633912    -0.24900
N948        N  0.89281544  0.79403184  0.61307174    -0.45700
H949        H  0.98225922  0.85824894  0.56340374     0.08000
C950        C  0.86212917  0.95633792  0.60123253    -0.05800
Cl951      Cl  0.88108353  0.87333849  0.57735638    -0.48800
C952        C  0.78939114  0.87310989  0.62351491     0.43700
H953        H  0.90893363  0.92333705  0.49326040     0.07900
N954        N  0.88346675  0.93806115  0.63678945    -0.45500
C955        C  0.13006236  0.04522913  0.39153112     0.43600
N956        N  0.13386767  0.08826257  0.39475050     0.02500
C957        C  0.19526508  0.14950931  0.49987468    -0.05400
H958        H  0.11264173  0.08723829  0.52656224     0.07900
C959        C  0.05338273  0.14770710  0.47530936    -0.05800
Co960      Co  0.16812251  0.09886172  0.44182917     0.74200
N961        N  0.13472677  0.09588018  0.49071972    -0.25000
Co962      Co  0.13507249  0.13711294  0.48789503     0.74100
C963        C  0.05277217  0.13218541  0.50016842     0.43700
N964        N  0.07794334  0.14709050  0.41034732     0.02100
N965        N  0.09349975  0.13778716  0.48841772     0.02200
N966        N  0.21520591  0.12262152  0.46957938    -0.45800
H967        H  0.15616616  0.03782218  0.42843025     0.07900
N968        N  0.14737731  0.08083059  0.47327182     0.02500
N969        N  0.13551582  0.17800442  0.48386602     0.02200
C970        C  0.14333782  0.21923529  0.49084756     0.43800
N971        N  0.09051904  0.13260776  0.39211188    -0.24400
C972        C  0.21483431  0.11863176  0.40817903    -0.05300
N973        N  0.12273621  0.06914242  0.38004074    -0.45500
N974        N  0.14888904  0.19430891  0.49938298    -0.45700
C975        C  0.21914575  0.13544678  0.38491152     0.43600
N976        N  0.18893141  0.12113033  0.46851591     0.02400
N977        N  0.13302502  0.17448199  0.38921838    -0.24400
N978        N  0.14742776  0.07759669  0.41482229    -0.24900
N979        N  0.11902173  0.18786621  0.40721247     0.02100
H980        H  0.15836422  0.18844021  0.35682931     0.08000
H981        H  0.11495292  0.23262820  0.45692594     0.08000
N982        N  0.17667031  0.13635685  0.48604448    -0.25000
N983        N  0.07952639  0.14995347  0.46952892    -0.24600
N984        N  0.17646921  0.13068221  0.39147242     0.02500
C985        C  0.13081521  0.05307101  0.50151357     0.43900
C986        C  0.07162791  0.12088885  0.37703327    -0.05800
N987        N  0.12117533  0.19060958  0.46560737    -0.24600
H988        H  0.03705154  0.15612652  0.46375216     0.08000
N989        N  0.14600455  0.05496867  0.47925404    -0.45800
H990        H  0.07542088  0.10773483  0.36037390     0.08000
C991        C  0.13660284  0.21927430  0.38365970     0.43700
C992        C  0.14633798  0.05109907  0.41434507    -0.05300
Co993      Co  0.13342836  0.13145041  0.39057590     0.73800
N994        N  0.05148996  0.14608185  0.40863283    -0.45500
C995        C  0.22074980  0.14061977  0.48835125     0.44000
N996        N  0.19439269  0.14233466  0.37539686    -0.45500
Co997      Co  0.09893489  0.16917475  0.43809778     0.73900
C998        C  0.12450234  0.21701429  0.46865654    -0.05800
C999        C  0.12355149  0.08023092  0.50928633    -0.05400
N1000       N  0.18835549  0.11721421  0.41094934    -0.24900
N1001       N  0.07827374  0.12698586  0.50711332    -0.45700
H1002       H  0.19143336  0.16323696  0.51606017     0.08000
C1003       C  0.14510450  0.19286563  0.37331240    -0.05800
Cl1004     Cl  0.13376004  0.13407885  0.43942614    -0.48800
C1005       C  0.04576008  0.12996532  0.38806032     0.43700
H1006       H  0.22924980  0.10953904  0.42157282     0.07900
N1007       N  0.12060759  0.21416263  0.40458800    -0.45500
C1008       C  0.63023711  0.03643682  0.37716123     0.43600
N1009       N  0.62788447  0.07909965  0.36943037     0.02500
C1010       C  0.58683989  0.12893608  0.24621534    -0.05400
H1011       H  0.66819020  0.06223911  0.24837440     0.07900
C1012       C  0.71895829  0.13128470  0.29518054    -0.05800
Co1013     Co  0.59828736  0.08821657  0.31788427     0.74200
N1014       N  0.63969314  0.07781116  0.27648965    -0.25000
Co1015     Co  0.64041822  0.11920987  0.27308546     0.74100
C1016       C  0.72344189  0.11408457  0.27216258     0.43700
N1017       N  0.68643385  0.13581828  0.35496716     0.02100
N1018       N  0.68137107  0.12001180  0.27778133     0.02200
N1019       N  0.55770733  0.10988044  0.27512992    -0.45800
H1020       H  0.60530581  0.02716638  0.34006470     0.07900
N1021       N  0.62267085  0.06622400  0.29293299     0.02500
N1022       N  0.63930472  0.16034104  0.27264304     0.02200
C1023       C  0.62419728  0.19959043  0.26602658     0.43800
N1024       N  0.67276293  0.12149926  0.37256708    -0.24400
C1025       C  0.54937100  0.11342131  0.34516089    -0.05300
N1026       N  0.63818717  0.06082900  0.38616734    -0.45500
N1027       N  0.62395798  0.17464931  0.25655901    -0.45700
C1028       C  0.54439145  0.12953918  0.36866913     0.43600
N1029       N  0.58269766  0.10853945  0.28429809     0.02400
N1030       N  0.63094834  0.16432919  0.36899159    -0.24400
N1031       N  0.61435743  0.06775134  0.35000757    -0.24900
N1032       N  0.64573094  0.17707989  0.35114983     0.02100
H1033       H  0.60565370  0.17870992  0.40097231     0.08000
H1034       H  0.64576771  0.21629195  0.30267369     0.08000
N1035       N  0.59980650  0.11931090  0.26745230    -0.25000
N1036       N  0.69230970  0.13420699  0.29683845    -0.24600
N1037       N  0.58699230  0.12290034  0.36471559     0.02500
C1038       C  0.64288852  0.03349537  0.27444384     0.43900
C1039       C  0.69098638  0.10947422  0.38886771    -0.05800
N1040       N  0.64948396  0.17455583  0.29219738    -0.24600
H1041       H  0.73346590  0.14010370  0.30838792     0.08000
N1042       N  0.62366086  0.03985558  0.29202805    -0.45800
H1043       H  0.68642004  0.09615960  0.40535141     0.08000
C1044       C  0.62832909  0.20881894  0.37428057     0.43700
C1045       C  0.61436866  0.04128218  0.35345414    -0.05300
Co1046     Co  0.62967828  0.12179194  0.37006964     0.73800
N1047       N  0.71256806  0.13454474  0.35813607    -0.45500
C1048       C  0.55919404  0.12308475  0.25131574     0.44000
N1049       N  0.56857781  0.13489687  0.37977396    -0.45500
Co1050     Co  0.66881222  0.15591357  0.32375686     0.73900
C1051       C  0.64165768  0.20007979  0.28919751    -0.05800
C1052       C  0.65349099  0.05875248  0.26382991    -0.05400
N1053       N  0.57595171  0.11047956  0.34428649    -0.24900
N1054       N  0.69918938  0.10744839  0.26275888    -0.45700
H1055       H  0.59591276  0.13809359  0.22881317     0.08000
C1056       C  0.61898026  0.18284871  0.38445460    -0.05800
Cl1057     Cl  0.63427160  0.12129091  0.32138700    -0.48800
C1058       C  0.71749292  0.11844200  0.37903903     0.43700
H1059       H  0.53540220  0.10485036  0.33122250     0.07900
N1060       N  0.64488443  0.20352106  0.35370063    -0.45500
C1061       C  0.13377575  0.74098660  0.06742802     0.43600
N1062       N  0.13112132  0.75644981  0.10713460     0.02500
C1063       C  0.06697883  0.87274590  0.14756371    -0.05400
H1064       H  0.14548973  0.88813342  0.07912987     0.07900
C1065       C  0.21104841  0.84448075  0.15216464    -0.05800
Co1066     Co  0.09556550  0.80447974  0.11012640     0.74200
N1067       N  0.12686187  0.85342317  0.09687857    -0.25000
Co1068     Co  0.12896316  0.85810037  0.13916688     0.74100
C1069       C  0.21421874  0.86718618  0.13478710     0.43700
N1070       N  0.18749097  0.78244190  0.15671212     0.02100
N1071       N  0.17207152  0.85854110  0.13845887     0.02200
N1072       N  0.04799277  0.83724848  0.12754837    -0.45800
H1073       H  0.10656893  0.77458868  0.05070243     0.07900
N1074       N  0.11424709  0.83292327  0.08611667     0.02500
N1075       N  0.13090825  0.86031516  0.18214310     0.02200
C1076       C  0.12822763  0.86994824  0.22430535     0.43800
N1077       N  0.17463391  0.76220809  0.14624416    -0.24400
C1078       C  0.05168966  0.77018186  0.13827122    -0.05300
N1079       N  0.14129200  0.73661336  0.09294494    -0.45500
N1080       N  0.11911817  0.87695033  0.19940788    -0.45700
C1081       C  0.05180791  0.74762423  0.15711540     0.43600
N1082       N  0.07438566  0.83513505  0.12804650     0.02400
N1083       N  0.13453092  0.76585255  0.18961090    -0.24400
N1084       N  0.11696131  0.77341975  0.09251126    -0.24900
N1085       N  0.14839709  0.78551430  0.19985312     0.02100
H1086       H  0.10800916  0.73691511  0.20747645     0.08000
H1087       H  0.15806137  0.83677672  0.23551853     0.08000
N1088       N  0.08632885  0.85564665  0.13943549    -0.25000
N1089       N  0.18492262  0.84055922  0.15305606    -0.24600
N1090       N  0.09198992  0.75997366  0.15001351     0.02500
C1091       C  0.12597218  0.85654137  0.05219977     0.43900
C1092       C  0.19208665  0.74745418  0.13214864    -0.05800
N1093       N  0.14657733  0.84301035  0.19472605    -0.24600
H1094       H  0.22572761  0.83292186  0.16315029     0.08000
N1095       N  0.11315879  0.83406599  0.05959617    -0.45800
H1096       H  0.18715695  0.73064034  0.11969469     0.08000
C1097       C  0.12870061  0.76860704  0.23337174     0.43700
C1098       C  0.11741834  0.76532168  0.06702404    -0.05300
Co1099     Co  0.13318159  0.76034918  0.14844851     0.73800
N1100       N  0.21295295  0.78293424  0.14971567    -0.45500
C1101       C  0.04158659  0.86040146  0.13944743     0.44000
N1102       N  0.07746064  0.74235639  0.16323740    -0.45500
Co1103     Co  0.16710775  0.81279917  0.17616086     0.73900
C1104       C  0.14662560  0.84787921  0.22082853    -0.05800
C1105       C  0.13517039  0.86937912  0.07681157    -0.05400
N1106       N  0.07751059  0.77639241  0.13511665    -0.24900
N1107       N  0.18927857  0.87519224  0.12665354    -0.45700
H1108       H  0.07023604  0.89191953  0.15681173     0.08000
C1109       C  0.12142535  0.75361169  0.20951197    -0.05800
Cl1110     Cl  0.13116911  0.80910104  0.14333255    -0.48800
C1111       C  0.21755829  0.76123561  0.13462907     0.43700
H1112       H  0.03516625  0.77950115  0.12774994     0.07900
N1113       N  0.14594500  0.78753780  0.22600948    -0.45500
C1114       C  0.04426252  0.63902583  0.26548886     0.43600
N1115       N  0.08499093  0.63533180  0.27746106     0.02500
C1116       C  0.13300773  0.57203879  0.39071197    -0.05400
H1117       H  0.06187425  0.65316075  0.40591924     0.07900
C1118       C  0.13240604  0.71679808  0.36234432    -0.05800
Co1119     Co  0.09246992  0.59983233  0.32425683     0.74200
N1120       N  0.08023884  0.63141551  0.37332736    -0.25000
Co1121     Co  0.12278048  0.63442332  0.37648452     0.74100
C1122       C  0.11568019  0.71974739  0.38549190     0.43700
N1123       N  0.13270212  0.69322298  0.30074019     0.02100
N1124       N  0.12067591  0.67755345  0.37706566     0.02200
N1125       N  0.11262848  0.55321916  0.35533738    -0.45800
H1126       H  0.03024155  0.61054568  0.29912447     0.07900
N1127       N  0.06957474  0.61779306  0.35344037     0.02500
N1128       N  0.16589991  0.63759402  0.37598793     0.02200
C1129       C  0.20872628  0.63567135  0.38250492     0.43800
N1130       N  0.12118110  0.67952118  0.28169980    -0.24400
C1131       C  0.12163942  0.55702752  0.28915141    -0.05300
N1132       N  0.06924593  0.64648016  0.25938533    -0.45500
N1133       N  0.18467404  0.62607841  0.39127984    -0.45700
C1134       C  0.13984472  0.55821657  0.26625623     0.43600
N1135       N  0.11269896  0.57956724  0.35354371     0.02400
N1136       N  0.16687644  0.64229979  0.28094087    -0.24400
N1137       N  0.07194406  0.62055600  0.29484532    -0.24900
N1138       N  0.17834347  0.65608540  0.29991642     0.02100
H1139       H  0.18245243  0.61969246  0.24793228     0.08000
H1140       H  0.21680543  0.66529668  0.34841607     0.08000
N1141       N  0.12425442  0.59156711  0.37393012    -0.25000
N1142       N  0.13407359  0.69069051  0.35854744    -0.24600
N1143       N  0.12980868  0.59792128  0.27808469     0.02500
C1144       C  0.03535861  0.63138937  0.37521762     0.43900
C1145       C  0.10521529  0.69581185  0.26767391    -0.05800
N1146       N  0.17685880  0.65343753  0.35783426    -0.24600
H1147       H  0.14193469  0.73172290  0.34992738     0.08000
N1148       N  0.04316340  0.61729452  0.35388479    -0.45800
H1149       H  0.09326738  0.69046210  0.25060455     0.08000
C1150       C  0.21083478  0.64046994  0.27735090     0.43700
C1151       C  0.04584322  0.62139819  0.28884789    -0.05300
Co1152     Co  0.12588566  0.63881741  0.27889926     0.73800
N1153       N  0.12574503  0.71880573  0.30029273    -0.45500
C1154       C  0.12502445  0.54664673  0.37811549     0.44000
N1155       N  0.14370165  0.58416181  0.26043809    -0.45500
Co1156     Co  0.15573109  0.67367115  0.32921099     0.73900
C1157       C  0.20325335  0.65384573  0.36069006    -0.05800
C1158       C  0.05986693  0.64102802  0.38824663    -0.05400
N1159       N  0.11666176  0.58268113  0.29507901    -0.24900
N1160       N  0.10865589  0.69457959  0.39380494    -0.45700
H1161       H  0.14241366  0.57514648  0.40986764     0.08000
C1162       C  0.18582843  0.63172562  0.26543752    -0.05800
Cl1163     Cl  0.12423868  0.63651857  0.32764057    -0.48800
C1164       C  0.10773006  0.72151015  0.28039641     0.43700
H1165       H  0.11309424  0.53986489  0.29916561     0.07900
N1166       N  0.20473628  0.65606416  0.29822850    -0.45500
C1167       C  0.85457065  0.12195571  0.04538511     0.43600
N1168       N  0.84902731  0.12171349  0.08845982     0.02500
C1169       C  0.74004290  0.06867331  0.15589789    -0.05400
H1170       H  0.72053681  0.15068267  0.08462842     0.07900
C1171       C  0.77279955  0.20838310  0.14329670    -0.05800
Co1172     Co  0.80060496  0.08979602  0.10311651     0.74200
N1173       N  0.75327316  0.12545872  0.09783405    -0.25000
Co1174     Co  0.75515828  0.12732680  0.13964321     0.74100
C1175       C  0.74854601  0.21052255  0.12727097     0.43700
N1176       N  0.83526773  0.18121217  0.14377050     0.02100
N1177       N  0.75615108  0.16916827  0.13767028     0.02200
N1178       N  0.77014899  0.04543028  0.13172138    -0.45800
H1179       H  0.81708403  0.09660233  0.03904830     0.07900
N1180       N  0.77073085  0.11077189  0.08455814     0.02500
N1181       N  0.75963016  0.12878663  0.18136476     0.02200
C1182       C  0.75841304  0.11908139  0.22354931     0.43800
N1183       N  0.85292592  0.16748823  0.12952523    -0.24400
C1184       C  0.83418509  0.04302311  0.12239429    -0.05300
N1185       N  0.86503608  0.13049570  0.06898231    -0.45500
N1186       N  0.74723074  0.11385611  0.19953266    -0.45700
C1187       C  0.85979780  0.03862259  0.13504446     0.43600
N1188       N  0.77234936  0.07146031  0.12742900     0.02400
N1189       N  0.85576939  0.12741464  0.17342030    -0.24400
N1190       N  0.82879540  0.10802835  0.07878856    -0.24900
N1191       N  0.83832488  0.14214919  0.18686515     0.02100
H1192       H  0.89026775  0.10443639  0.18645867     0.08000
H1193       H  0.79472288  0.14523678  0.23189942     0.08000
N1194       N  0.75506381  0.08560028  0.14141718    -0.25000
N1195       N  0.77601226  0.18226583  0.14862414    -0.24600
N1196       N  0.85176339  0.08133191  0.13263982     0.02500
C1197       C  0.74697542  0.12837003  0.05395073     0.43900
C1198       C  0.86885393  0.18544508  0.11702944    -0.05800
N1199       N  0.77938107  0.14249905  0.19180410    -0.24600
H1200       H  0.78660771  0.22396939  0.14864609     0.08000
N1201       N  0.76742301  0.11161446  0.05845039    -0.45800
H1202       H  0.88562408  0.18058965  0.10427788     0.08000
C1203       C  0.86482990  0.12751261  0.21733502     0.43700
C1204       C  0.83064045  0.10703397  0.05207009    -0.05300
Co1205     Co  0.85335796  0.12450942  0.13099747     0.73800
N1206       N  0.83836093  0.20748262  0.14201907    -0.45500
C1207       C  0.74973270  0.04201063  0.14895175     0.44000
N1208       N  0.86978939  0.06326894  0.14104406    -0.45500
Co1209     Co  0.80722164  0.16241137  0.16803363     0.73900
C1210       C  0.77974494  0.13805802  0.21821391    -0.05800
C1211       C  0.73706336  0.13745848  0.07998197    -0.05400
N1212       N  0.83098932  0.06949776  0.12174507    -0.24900
N1213       N  0.73977515  0.18520415  0.12404049    -0.45700
H1214       H  0.72457543  0.07428937  0.16993097     0.08000
C1215       C  0.87339210  0.11718254  0.19120028    -0.05800
Cl1216     Cl  0.80423790  0.12603264  0.13547297    -0.48800
C1217       C  0.85907115  0.21202520  0.12546517     0.43700
H1218       H  0.82050684  0.02880464  0.11389280     0.07900
N1219       N  0.84306271  0.14277557  0.21290314    -0.45500
C1220       C  0.75128851  0.54254972  0.62203293     0.43600
N1221       N  0.76083524  0.58413742  0.61899432     0.02500
C1222       C  0.87734002  0.63922654  0.57050411    -0.05400
H1223       H  0.88852606  0.56711461  0.65268563     0.07900
C1224       C  0.83529269  0.63388259  0.71177362    -0.05800
Co1225     Co  0.81155870  0.59335213  0.58994275     0.74200
N1226       N  0.85718997  0.58340740  0.62746102    -0.25000
Co1227     Co  0.85810485  0.62580569  0.63090319     0.74100
C1228       C  0.86003742  0.61950858  0.71669663     0.43700
N1229       N  0.77406841  0.63411849  0.67916108     0.02100
N1230       N  0.85404884  0.62346424  0.67387797     0.02200
N1231       N  0.84589355  0.61660140  0.54783308    -0.45800
H1232       H  0.78882211  0.53005585  0.59854339     0.07900
N1233       N  0.83947652  0.57167405  0.61186299     0.02500
N1234       N  0.85655171  0.66852275  0.63437129     0.02200
C1235       C  0.86388772  0.71128877  0.63438025     0.43800
N1236       N  0.75741471  0.62247563  0.66260127    -0.24400
C1237       C  0.78071952  0.62034855  0.54180161    -0.05300
N1238       N  0.74274151  0.56738404  0.62843315    -0.45500
N1239       N  0.87353301  0.68721030  0.62576725    -0.45700
C1240       C  0.75635897  0.63651587  0.53878254     0.43600
N1241       N  0.84205742  0.61505756  0.57381239     0.02400
N1242       N  0.76190250  0.66746031  0.62498750    -0.24400
N1243       N  0.78063350  0.57174363  0.60677542    -0.24900
N1244       N  0.77901847  0.67852907  0.64147941     0.02100
H1245       H  0.73259997  0.68446091  0.59809220     0.08000
H1246       H  0.82605512  0.71941808  0.65906963     0.08000
N1247       N  0.86009333  0.62786986  0.58808069    -0.25000
N1248       N  0.83330434  0.63532468  0.68520138    -0.24600
N1249       N  0.76352308  0.62814003  0.58043480     0.02500
C1250       C  0.86188260  0.53881746  0.62819925     0.43900
C1251       C  0.73864467  0.60974494  0.67652102    -0.05800
N1252       N  0.83649960  0.67919977  0.64786072    -0.24600
H1253       H  0.82156215  0.64299017  0.72576164     0.08000
N1254       N  0.84158886  0.54524250  0.61177275    -0.45800
H1255       H  0.72177320  0.59929265  0.66824684     0.08000
C1256       C  0.75954546  0.71200270  0.62336771     0.43700
C1257       C  0.77620892  0.54530444  0.60733570    -0.05300
Co1258     Co  0.76028371  0.62575208  0.62172709     0.73800
N1259       N  0.76688057  0.63085960  0.70451793    -0.45500
C1260       C  0.86766587  0.63138272  0.54376443     0.44000
N1261       N  0.74726389  0.64104369  0.56377776    -0.45500
Co1262     Co  0.80556247  0.65678834  0.66381507     0.73900
C1263       C  0.83952981  0.70573574  0.64910898    -0.05800
C1264       C  0.87231182  0.56401931  0.63878570    -0.05400
N1265       N  0.78329966  0.61580983  0.56815176    -0.24900
N1266       N  0.87072098  0.61345606  0.69230371    -0.45700
H1267       H  0.89471817  0.65082674  0.57568946     0.08000
C1268       C  0.74833176  0.68719283  0.61258738    -0.05800
Cl1269     Cl  0.80904714  0.62538637  0.62660329    -0.48800
C1270       C  0.74494914  0.61514848  0.70406249     0.43700
H1271       H  0.79419616  0.61310127  0.52642704     0.07900
N1272       N  0.77800937  0.70486345  0.64135420    -0.45500
C1273       C  0.12067438  0.03602245  0.87288425     0.43600
N1274       N  0.12134002  0.07861848  0.86576271     0.02500
C1275       C  0.07015789  0.13905153  0.75225055    -0.05400
H1276       H  0.16007644  0.07664567  0.74037058     0.07900
C1277       C  0.20764460  0.14234352  0.79275969    -0.05800
Co1278     Co  0.09171805  0.08983257  0.81523286     0.74200
N1279       N  0.12994903  0.08660512  0.76964361    -0.25000
Co1280     Co  0.12860246  0.12826502  0.77204447     0.74100
C1281       C  0.21201698  0.12838012  0.76785906     0.43700
N1282       N  0.17748560  0.13800298  0.85398503     0.02100
N1283       N  0.16997659  0.12949136  0.77606270     0.02200
N1284       N  0.04722723  0.11278685  0.78116350    -0.45800
H1285       H  0.09906133  0.02811663  0.83343313     0.07900
N1286       N  0.11557736  0.07183648  0.78603460     0.02500
N1287       N  0.12708065  0.16956995  0.77607137     0.02200
C1288       C  0.12130597  0.21139632  0.76874185     0.43800
N1289       N  0.16487443  0.12248832  0.87133942    -0.24400
C1290       C  0.04222545  0.10907569  0.84583581    -0.05300
N1291       N  0.12816672  0.05982250  0.88351018    -0.45500
N1292       N  0.11657180  0.18679247  0.75891318    -0.45700
C1293       C  0.03639636  0.12364019  0.87012314     0.43600
N1294       N  0.07316806  0.11230892  0.78608556     0.02400
N1295       N  0.12172672  0.16404943  0.87170303    -0.24400
N1296       N  0.10985295  0.06797958  0.84463382    -0.24900
N1297       N  0.13598120  0.17778089  0.85419646     0.02100
H1298       H  0.09763068  0.17725775  0.90524995     0.08000
H1299       H  0.14482752  0.22295758  0.80618047     0.08000
N1300       N  0.08709555  0.12714930  0.76939589    -0.25000
N1301       N  0.18111149  0.14197086  0.79618741    -0.24600
N1302       N  0.07926593  0.12042886  0.86523767     0.02500
C1303       C  0.13860387  0.04310969  0.76343808     0.43900
C1304       C  0.18396763  0.11123136  0.88715573    -0.05800
N1305       N  0.13874012  0.18150569  0.79624804    -0.24600
H1306       H  0.22184180  0.15249911  0.80533616     0.08000
N1307       N  0.12057249  0.04593244  0.78338340    -0.45800
H1308       H  0.18039409  0.09756282  0.90363355     0.08000
C1309       C  0.11974179  0.20848141  0.87899084     0.43700
C1310       C  0.10873250  0.04148348  0.84722697    -0.05300
Co1311     Co  0.12178934  0.12122832  0.86968003     0.73800
N1312       N  0.20365929  0.13837387  0.85685794    -0.45500
C1313       C  0.04368006  0.12957328  0.76038523     0.44000
N1314       N  0.06029514  0.13018508  0.88123942    -0.45500
Co1315     Co  0.15841228  0.15993388  0.82523107     0.73900
C1316       C  0.13627722  0.20801858  0.79330072    -0.05800
C1317       C  0.14513384  0.07029123  0.75467394    -0.05400
N1318       N  0.06887608  0.10815927  0.84440060    -0.24900
N1319       N  0.18778497  0.12128355  0.75842674    -0.45700
H1320       H  0.07582899  0.15190842  0.73577574     0.08000
C1321       C  0.11034385  0.18202246  0.88840216    -0.05800
Cl1322     Cl  0.12514903  0.12469346  0.82070821    -0.48800
C1323       C  0.20972972  0.12214436  0.87728985     0.43700
H1324       H  0.02872322  0.10033875  0.83154929     0.07900
N1325       N  0.13545139  0.20390042  0.85786265    -0.45500
C1326       C  0.62438415  0.25382340  0.05783862     0.43600
N1327       N  0.62015565  0.26335870  0.09907682     0.02500
C1328       C  0.56288476  0.37806102  0.15083259    -0.05400
H1329       H  0.64221205  0.39358687  0.08103612     0.07900
C1330       C  0.70555209  0.34121096  0.14979569    -0.05800
Co1331     Co  0.58683504  0.31204871  0.10734589     0.74200
N1332       N  0.62082798  0.35969852  0.09729355    -0.25000
Co1333     Co  0.62406421  0.36060720  0.13981581     0.74100
C1334       C  0.70955017  0.36562076  0.13502214     0.43700
N1335       N  0.67866719  0.27964069  0.14938760     0.02100
N1336       N  0.66710171  0.35852652  0.13836533     0.02200
N1337       N  0.54166844  0.34537267  0.12848086    -0.45800
H1338       H  0.59777601  0.28940283  0.04476068     0.07900
N1339       N  0.60649029  0.34098539  0.08554951     0.02500
N1340       N  0.62698421  0.35878873  0.18257081     0.02200
C1341       C  0.62542860  0.36518730  0.22532284     0.43800
N1342       N  0.66413773  0.26122448  0.13785043    -0.24400
C1343       C  0.54188860  0.27998535  0.13588601    -0.05300
N1344       N  0.63120130  0.24595239  0.08267122    -0.45500
N1345       N  0.61660048  0.37475143  0.20123316    -0.45700
C1346       C  0.54127502  0.25698187  0.15404132     0.43600
N1347       N  0.56791018  0.34194335  0.12821415     0.02400
N1348       N  0.62521569  0.26353138  0.18130137    -0.24400
N1349       N  0.60631134  0.28208285  0.08648136    -0.24900
N1350       N  0.63980765  0.28149526  0.19335398     0.02100
H1351       H  0.60037573  0.23172930  0.19568177     0.08000
H1352       H  0.65244962  0.32883252  0.23359420     0.08000
N1353       N  0.58120639  0.36074933  0.14091730    -0.25000
N1354       N  0.67923566  0.33848257  0.15080737    -0.24600
N1355       N  0.58171704  0.26477026  0.14311562     0.02500
C1356       C  0.61959137  0.36521232  0.05283696     0.43900
C1357       C  0.68036364  0.24471511  0.12430861    -0.05800
N1358       N  0.64154562  0.33942128  0.19342755    -0.24600
H1359       H  0.71985281  0.32790981  0.15925468     0.08000
N1360       N  0.60524524  0.34352853  0.05922451    -0.45800
H1361       H  0.67405009  0.22836428  0.11186440     0.08000
C1362       C  0.62222897  0.25934280  0.22523028     0.43700
C1363       C  0.60753895  0.27760088  0.06014394    -0.05300
Co1364     Co  0.62276286  0.26250560  0.14027940     0.73800
N1365       N  0.70440739  0.27720560  0.14348801    -0.45500
C1366       C  0.53666780  0.36768225  0.14232597     0.44000
N1367       N  0.56658861  0.24846400  0.15728097    -0.45500
Co1368     Co  0.66015113  0.30974718  0.17184382     0.73900
C1369       C  0.64198550  0.34201164  0.21990959    -0.05800
C1370       C  0.63011076  0.37605650  0.07794965    -0.05400
N1371       N  0.56785471  0.28338422  0.13043197    -0.24900
N1372       N  0.68492786  0.37555862  0.12820959    -0.45700
H1373       H  0.56729641  0.39617402  0.16159558     0.08000
C1374       C  0.61326818  0.24845151  0.19976107    -0.05800
Cl1375     Cl  0.62352298  0.31144143  0.13971440    -0.48800
C1376       C  0.70721277  0.25507883  0.12831018     0.43700
H1377       H  0.52559186  0.29204973  0.12810116     0.07900
N1378       N  0.63902423  0.27943179  0.21964912    -0.45500
C1379       C  0.03096095  0.36706940  0.63432114     0.43600
N1380       N  0.07363421  0.36095907  0.63197185     0.02500
C1381       C  0.13332801  0.25689462  0.56542023    -0.05400
H1382       H  0.07296369  0.23050460  0.65327491     0.07900
C1383       C  0.13299984  0.27671779  0.70705423    -0.05800
Co1384     Co  0.08322973  0.31457876  0.59650766     0.74200
N1385       N  0.08172848  0.26485397  0.62838021    -0.25000
Co1386     Co  0.12298145  0.26691747  0.62574002     0.74100
C1387       C  0.11694785  0.25244548  0.70663794     0.43700
N1388       N  0.13335856  0.34167676  0.68559061     0.02100
N1389       N  0.12478788  0.26455071  0.66662246     0.02200
N1390       N  0.10535134  0.28770048  0.54710565    -0.45800
H1391       H  0.02258432  0.33055817  0.60837799     0.07900
N1392       N  0.06638679  0.28330728  0.61727960     0.02500
N1393       N  0.16395179  0.27111686  0.62383600     0.02200
C1394       C  0.20500073  0.26727528  0.61293731     0.43800
N1395       N  0.11829465  0.36062690  0.67450014    -0.24400
C1396       C  0.09927365  0.34942965  0.55078478    -0.05300
N1397       N  0.05498392  0.37717440  0.64207958    -0.45500
N1398       N  0.18045585  0.25754196  0.60834507    -0.45700
C1399       C  0.11506456  0.37282911  0.54591166     0.43600
N1400       N  0.10475717  0.28821925  0.57350587     0.02400
N1401       N  0.15935303  0.36579275  0.63141386    -0.24400
N1402       N  0.06258587  0.34132371  0.61854271    -0.24900
N1403       N  0.17317320  0.34685977  0.64396093     0.02100
H1404       H  0.17241721  0.40157444  0.61055747     0.08000
H1405       H  0.21772011  0.29997358  0.64223596     0.08000
N1406       N  0.12065028  0.27034437  0.58466300    -0.25000
N1407       N  0.13649417  0.28289329  0.68114409    -0.24600
N1408       N  0.11418309  0.36479409  0.58849363     0.02500
C1409       C  0.03942896  0.25823349  0.63841508     0.43900
C1410       C  0.10672682  0.37440389  0.69466308    -0.05800
N1411       N  0.17626304  0.28896851  0.63851086    -0.24600
H1412       H  0.14029663  0.28800319  0.72383546     0.08000
N1413       N  0.04068028  0.27987427  0.62233419    -0.45800
H1414       H  0.09315716  0.39118921  0.69230139     0.08000
C1415       C  0.20383357  0.37311645  0.62979104     0.43700
C1416       C  0.03615779  0.34347075  0.61891310    -0.05300
Co1417     Co  0.11640634  0.36433797  0.63161072     0.73800
N1418       N  0.13310142  0.34178486  0.71206441    -0.45500
C1419       C  0.12345983  0.26891098  0.54059919     0.44000
N1420       N  0.12394388  0.38166141  0.57014688    -0.45500
Co1421     Co  0.15514315  0.31502947  0.66275994     0.73900
C1422       C  0.20248782  0.28772583  0.63333178    -0.05800
C1423       C  0.06629655  0.24784086  0.64201675    -0.05400
N1424       N  0.10028635  0.34572317  0.57699067    -0.24900
N1425       N  0.11302604  0.24594202  0.68108578    -0.45700
H1426       H  0.14731845  0.24055540  0.56847844     0.08000
C1427       C  0.17726703  0.38349373  0.62156198    -0.05800
Cl1428     Cl  0.11946121  0.31546158  0.62919841    -0.48800
C1429       C  0.11678674  0.36181272  0.71957936     0.43700
H1430       H  0.08899503  0.33657702  0.53699204     0.07900
N1431       N  0.19935182  0.35047009  0.64350821    -0.45500
C1432       C  0.11008053  0.49930294  0.05133186     0.43600
N1433       N  0.12199579  0.49577253  0.09198923     0.02500
C1434       C  0.18296938  0.38432443  0.14757578    -0.05400
H1435       H  0.10470177  0.36448120  0.07818789     0.07900
C1436       C  0.03998234  0.41790887  0.14777897    -0.05800
Co1437     Co  0.15765626  0.44858907  0.10073827     0.74200
N1438       N  0.12449261  0.39979765  0.09292111    -0.25000
Co1439     Co  0.12177197  0.40001548  0.13569426     0.74100
C1440       C  0.03587460  0.39383193  0.13253744     0.43700
N1441       N  0.06661866  0.47996757  0.14639272     0.02100
N1442       N  0.07850320  0.40159705  0.13532530     0.02200
N1443       N  0.20403121  0.41664613  0.12395167    -0.45800
H1444       H  0.13746523  0.46462707  0.03840514     0.07900
N1445       N  0.13858862  0.41834014  0.08034967     0.02500
N1446       N  0.11995963  0.40198493  0.17840562     0.02200
C1447       C  0.12286565  0.39514003  0.22104129     0.43800
N1448       N  0.07981354  0.49806274  0.13259499    -0.24400
C1449       C  0.20309329  0.48271371  0.12563020    -0.05300
N1450       N  0.10649208  0.50972845  0.07569063    -0.45500
N1451       N  0.13076179  0.38573287  0.19675732    -0.45700
C1452       C  0.20493439  0.50654017  0.14222790     0.43600
N1453       N  0.17770709  0.41949048  0.12282328     0.02400
N1454       N  0.12107323  0.49827335  0.17446634    -0.24400
N1455       N  0.13570084  0.47692169  0.07963550    -0.24900
N1456       N  0.10755509  0.48005234  0.18788836     0.02100
H1457       H  0.14536256  0.53136034  0.18665227     0.08000
H1458       H  0.09677015  0.43185248  0.23019622     0.08000
N1459       N  0.16459122  0.40078187  0.13626106    -0.25000
N1460       N  0.06642747  0.42116047  0.14837668    -0.24600
N1461       N  0.16353928  0.49820575  0.13332109     0.02500
C1462       C  0.12683742  0.39238667  0.04855669     0.43900
C1463       C  0.06199531  0.51260080  0.11841081    -0.05800
N1464       N  0.10611669  0.42147088  0.18964275    -0.24600
H1465       H  0.02551484  0.43079157  0.15742088     0.08000
N1466       N  0.14051323  0.41463491  0.05418227    -0.45800
H1467       H  0.06669629  0.52830832  0.10424969     0.08000
C1468       C  0.12562135  0.50371733  0.21804266     0.43700
C1469       C  0.12993945  0.47800952  0.05354485    -0.05300
Co1470     Co  0.12168935  0.49841251  0.13306708     0.73800
N1471       N  0.04056711  0.48101435  0.14209278    -0.45500
C1472       C  0.20911599  0.39494071  0.13921985     0.44000
N1473       N  0.17940806  0.51456199  0.14662551    -0.45500
Co1474     Co  0.08649295  0.45070265  0.16827448     0.73900
C1475       C  0.10659585  0.41870289  0.21616746    -0.05800
C1476       C  0.11605916  0.38240868  0.07425586    -0.05400
N1477       N  0.17696033  0.47908273  0.12118904    -0.24900
N1478       N  0.06066147  0.38461007  0.12529749    -0.45700
H1479       H  0.17864270  0.36677273  0.15954717     0.08000
C1480       C  0.13316545  0.51431504  0.19183828    -0.05800
Cl1481     Cl  0.12193686  0.44924465  0.13443563    -0.48800
C1482       C  0.03583953  0.50143218  0.12498605     0.43700
H1483       H  0.21900094  0.46956375  0.11905049     0.07900
N1484       N  0.10935707  0.48285309  0.21406490    -0.45500
C1485       C  0.45963207  0.37813880  0.14371295     0.43600
N1486       N  0.41664706  0.38212405  0.14855694     0.02500
C1487       C  0.35866975  0.43901871  0.25961241    -0.05400
H1488       H  0.42668936  0.35970296  0.27870308     0.07900
C1489       C  0.36475054  0.29984566  0.22717836    -0.05800
Co1490     Co  0.40613056  0.41637824  0.19614509     0.74200
N1491       N  0.41330967  0.38172638  0.24396263    -0.25000
Co1492     Co  0.37157431  0.38060430  0.24397304     0.74100
C1493       C  0.38365365  0.29754467  0.24927865     0.43700
N1494       N  0.35870263  0.32619784  0.16582479     0.02100
N1495       N  0.37227694  0.33889145  0.24330544     0.02200
N1496       N  0.38243127  0.46203545  0.22868960    -0.45800
H1497       H  0.46765956  0.40533191  0.17939605     0.07900
N1498       N  0.42618254  0.39582399  0.22577544     0.02500
N1499       N  0.32999408  0.38028256  0.24260880     0.02200
C1500       C  0.28854616  0.38760302  0.25019979     0.43800
N1501       N  0.37267127  0.33873470  0.14714449    -0.24400
C1502       C  0.38474106  0.46282579  0.16347771    -0.05300
N1503       N  0.43548934  0.37034387  0.13366462    -0.45500
N1504       N  0.31345101  0.39274421  0.25904878    -0.45700
C1505       C  0.36878571  0.46692976  0.13973490     0.43600
N1506       N  0.38397999  0.43588558  0.22493241     0.02400
N1507       N  0.33079995  0.38123600  0.14645476    -0.24400
N1508       N  0.42753377  0.39644442  0.16767893    -0.24900
N1509       N  0.31786649  0.36750628  0.16506860     0.02100
H1510       H  0.31643251  0.40650010  0.11405364     0.08000
H1511       H  0.27545616  0.36161518  0.21506835     0.08000
N1512       N  0.37073135  0.42204840  0.24302795    -0.25000
N1513       N  0.35912792  0.32598626  0.22469449    -0.24600
N1514       N  0.37356893  0.42442466  0.14692790     0.02500
C1515       C  0.45719042  0.38080896  0.25106469     0.43900
C1516       C  0.38292321  0.31983012  0.13088012    -0.05800
N1517       N  0.31731680  0.36718548  0.22381423    -0.24600
H1518       H  0.35822937  0.28440081  0.21375393     0.08000
N1519       N  0.45231308  0.39624712  0.22956523    -0.45800
H1520       H  0.39492695  0.32356127  0.11327446     0.08000
C1521       C  0.28620629  0.38547313  0.14202139     0.43700
C1522       C  0.45406309  0.39544186  0.16599797    -0.05300
Co1523     Co  0.37353777  0.38152693  0.14606769     0.73800
N1524       N  0.35847396  0.29987594  0.16328249    -0.45500
C1525       C  0.36622933  0.46552096  0.24988677     0.44000
N1526       N  0.36221495  0.44225185  0.13040893    -0.45500
Co1527     Co  0.33791278  0.34639234  0.19486939     0.73900
C1528       C  0.29093598  0.37030556  0.22720795    -0.05800
C1529       C  0.43130753  0.37130460  0.26098460    -0.05400
N1530       N  0.38637312  0.43639761  0.16643694    -0.24900
N1531       N  0.38766910  0.32277404  0.25788166    -0.45700
H1532       H  0.34724778  0.43334330  0.27707290     0.08000
C1533       C  0.31227109  0.39345786  0.13086175    -0.05800
Cl1534     Cl  0.37232829  0.38114332  0.19512083    -0.48800
C1535       C  0.37327453  0.29411922  0.14175055     0.43700
H1536       H  0.39354879  0.47723131  0.17675930     0.07900
N1537       N  0.29152374  0.36948338  0.16310714    -0.45500
C1538       C  0.70666300  0.63782893  0.50238036     0.43600
N1539       N  0.66472696  0.63001392  0.49562153     0.02500
C1540       C  0.61087243  0.56209673  0.38789954    -0.05400
H1541       H  0.67738383  0.64460715  0.36506114     0.07900
C1542       C  0.60220868  0.70552308  0.41340881    -0.05800
Co1543     Co  0.65603444  0.59175638  0.45066564     0.74200
N1544       N  0.66289715  0.62350377  0.40011160    -0.25000
Co1545     Co  0.62000680  0.62424806  0.39963761     0.74100
C1546       C  0.61793685  0.71035809  0.38997064     0.43700
N1547       N  0.60662332  0.68309780  0.47471785     0.02100
N1548       N  0.61797222  0.66767593  0.39852202     0.02200
N1549       N  0.63454257  0.54315756  0.42160476    -0.45800
H1550       H  0.71892524  0.60916563  0.46880123     0.07900
N1551       N  0.67583902  0.61042873  0.41935198     0.02500
N1552       N  0.57707671  0.62407283  0.40164923     0.02200
C1553       C  0.53455747  0.61912825  0.39555389     0.43800
N1554       N  0.62177828  0.67147656  0.49292914    -0.24400
C1555       C  0.62991933  0.54859712  0.48865619    -0.05300
N1556       N  0.68148774  0.64467718  0.50978547    -0.45500
N1557       N  0.55921182  0.61190436  0.38621304    -0.45700
C1558       C  0.61256795  0.55031889  0.51220952     0.43600
N1559       N  0.63490232  0.56968098  0.42274856     0.02400
N1560       N  0.58115015  0.62994379  0.49795012    -0.24400
N1561       N  0.67718566  0.61466512  0.47827417    -0.24900
N1562       N  0.56708213  0.64111617  0.47862725     0.02100
H1563       H  0.56966204  0.60878125  0.53384242     0.08000
H1564       H  0.52432985  0.64649829  0.43073288     0.08000
N1565       N  0.62139415  0.58152686  0.40315456    -0.25000
N1566       N  0.60363317  0.67934722  0.41727445    -0.24600
N1567       N  0.62293787  0.58963394  0.49984218     0.02500
C1568       C  0.70751430  0.62443388  0.39410110     0.43900
C1569       C  0.63280085  0.69025792  0.50796093    -0.05800
N1570       N  0.56516495  0.63817240  0.42046561    -0.24600
H1571       H  0.59139137  0.71926198  0.42604559     0.08000
N1572       N  0.70217833  0.61055684  0.41652056    -0.45800
H1573       H  0.64483440  0.68644199  0.52552437     0.08000
C1574       C  0.53762824  0.62471120  0.50447980     0.43700
C1575       C  0.70359706  0.61818914  0.48109515    -0.05300
Co1576     Co  0.62289662  0.63044367  0.49718968     0.73800
N1577       N  0.60581080  0.70945397  0.47695033    -0.45500
C1578       C  0.61974934  0.53665999  0.40017734     0.44000
N1579       N  0.60945115  0.57619089  0.51801218    -0.45500
Co1580     Co  0.58545784  0.66045422  0.44775391     0.73900
C1581       C  0.53872205  0.63648534  0.41810356    -0.05800
C1582       C  0.68148676  0.63325168  0.38311147    -0.05400
N1583       N  0.63495706  0.57423138  0.48220391    -0.24900
N1584       N  0.62744882  0.68602676  0.38141252    -0.45700
H1585       H  0.59890484  0.56529471  0.37015773     0.08000
C1586       C  0.56414569  0.61904981  0.51554752    -0.05800
Cl1587     Cl  0.62123264  0.62672123  0.44860682    -0.48800
C1588       C  0.62231569  0.71550868  0.49718839     0.43700
H1589       H  0.63693876  0.53120169  0.47793216     0.07900
N1590       N  0.54100085  0.63895371  0.48195493    -0.45500
C1591       C  0.61982459  0.28581083  0.38425834     0.43600
N1592       N  0.61291841  0.32837507  0.38960075     0.02500
C1593       C  0.49996364  0.38577991  0.44480687    -0.05400
H1594       H  0.48619805  0.32054433  0.35901183     0.07900
C1595       C  0.53013178  0.38535644  0.30706185    -0.05800
Co1596     Co  0.56360454  0.33694794  0.42280369     0.74200
N1597       N  0.51634033  0.33190491  0.38752538    -0.25000
Co1598     Co  0.51677643  0.37366660  0.38770935     0.74100
C1599       C  0.50620705  0.36847872  0.30649419     0.43700
N1600       N  0.59569722  0.38679076  0.33413848     0.02100
N1601       N  0.51805147  0.37399621  0.34689112     0.02200
N1602       N  0.52920716  0.36041442  0.46865982    -0.45800
H1603       H  0.58312050  0.27524105  0.40973289     0.07900
N1604       N  0.53460977  0.31794869  0.40051105     0.02500
N1605       N  0.51795980  0.41541306  0.38742588     0.02200
C1606       C  0.50702759  0.45686602  0.39024681     0.43800
N1607       N  0.61434566  0.37290491  0.34702118    -0.24400
C1608       C  0.59477699  0.35621663  0.47053091    -0.05300
N1609       N  0.62920961  0.31065387  0.37794258    -0.45500
N1610       N  0.49955049  0.43180207  0.39710792    -0.45700
C1611       C  0.61817715  0.37207730  0.47573990     0.43600
N1612       N  0.53385949  0.35883211  0.44259733     0.02400
N1613       N  0.61361392  0.41422779  0.38985300    -0.24400
N1614       N  0.59341566  0.31633924  0.40272932    -0.24900
N1615       N  0.59547053  0.42729246  0.37547058     0.02100
H1616       H  0.64500405  0.42849509  0.41586291     0.08000
H1617       H  0.54276176  0.46995919  0.36455033     0.08000
N1618       N  0.51673320  0.37318943  0.42851639    -0.25000
N1619       N  0.53620883  0.38728049  0.33319822    -0.24600
N1620       N  0.61221305  0.36965490  0.43290363     0.02500
C1621       C  0.51354137  0.28855929  0.37771056     0.43900
C1622       C  0.63054949  0.36199184  0.32836965    -0.05800
N1623       N  0.53672225  0.42824211  0.37416139    -0.24600
H1624       H  0.54076130  0.39482775  0.29074679     0.08000
N1625       N  0.53410253  0.29220196  0.39463294    -0.45800
H1626       H  0.64777305  0.34940385  0.33237358     0.08000
C1627       C  0.61751688  0.45896163  0.39393758     0.43700
C1628       C  0.59627796  0.28982515  0.40077494    -0.05300
Co1629     Co  0.61447568  0.37134232  0.38986955     0.73800
N1630       N  0.59815828  0.38626070  0.30781664    -0.45500
C1631       C  0.50833250  0.37756246  0.47142319     0.44000
N1632       N  0.62810947  0.38005129  0.45150589    -0.45500
Co1633     Co  0.56621095  0.40765151  0.35387063     0.73900
C1634       C  0.53155969  0.45457466  0.37483729    -0.05800
C1635       C  0.50167164  0.31495304  0.37303729    -0.05400
N1636       N  0.59258235  0.35598614  0.44402096    -0.24900
N1637       N  0.49993027  0.36266791  0.33181586    -0.45700
H1638       H  0.48331964  0.39815466  0.43845503     0.08000
C1639       C  0.62857535  0.43274708  0.40240920    -0.05800
Cl1640     Cl  0.56545413  0.37240253  0.38855707    -0.48800
C1641       C  0.61969631  0.37110018  0.30241021     0.43700
H1642       H  0.58127197  0.34649681  0.48429986     0.07900
N1643       N  0.59712366  0.45364884  0.37737259    -0.45500
C1644       C  0.25267446  0.06024753  0.63071696     0.43600
N1645       N  0.26471609  0.09984839  0.62100808     0.02500
C1646       C  0.38236605  0.14789188  0.57045564    -0.05400
H1647       H  0.39157939  0.07534445  0.65570018     0.07900
C1648       C  0.34046639  0.14678347  0.71178013    -0.05800
Co1649     Co  0.31609125  0.10319837  0.59183598     0.74200
N1650       N  0.36104579  0.09211137  0.62970030    -0.25000
Co1651     Co  0.36339237  0.13522585  0.63132828     0.74100
C1652       C  0.36456158  0.13157101  0.71701938     0.43700
N1653       N  0.27964537  0.14906295  0.67960525     0.02100
N1654       N  0.35889031  0.13462583  0.67422145     0.02200
N1655       N  0.35139757  0.12455742  0.54792588    -0.45800
H1656       H  0.28913636  0.04175767  0.60912239     0.07900
N1657       N  0.34284360  0.08042860  0.61460907     0.02500
N1658       N  0.36284264  0.17836099  0.63337768     0.02200
C1659       C  0.36987121  0.22112480  0.63173906     0.43800
N1660       N  0.26225033  0.13861220  0.66306044    -0.24400
C1661       C  0.28867373  0.13323798  0.54358800    -0.05300
N1662       N  0.24608456  0.08600005  0.63329077    -0.45500
N1663       N  0.37920750  0.19684161  0.62313927    -0.45700
C1664       C  0.26811287  0.15418343  0.54132897     0.43600
N1665       N  0.34799449  0.12251611  0.57413627     0.02400
N1666       N  0.26926926  0.18151261  0.62445545    -0.24400
N1667       N  0.28350216  0.08478962  0.61025493    -0.24900
N1668       N  0.28589450  0.19309603  0.64089680     0.02100
H1669       H  0.23896719  0.19631543  0.59784752     0.08000
H1670       H  0.33282055  0.22986947  0.65723628     0.08000
N1671       N  0.36574550  0.13588931  0.58823180    -0.25000
N1672       N  0.33863649  0.14765210  0.68521948    -0.24600
N1673       N  0.27226828  0.14266497  0.58214752     0.02500
C1674       C  0.36387108  0.04694500  0.63242191     0.43900
C1675       C  0.24320342  0.12633071  0.67692162    -0.05800
N1676       N  0.34340298  0.18973008  0.64720766    -0.24600
H1677       H  0.32714495  0.15689056  0.72548148     0.08000
N1678       N  0.34389833  0.05384877  0.61560566    -0.45800
H1679       H  0.22601332  0.11624790  0.66883602     0.08000
C1680       C  0.26478959  0.22544053  0.62204493     0.43700
C1681       C  0.27737193  0.05895973  0.61496985    -0.05300
Co1682     Co  0.26666465  0.14071369  0.62241255     0.73800
N1683       N  0.27347519  0.14445897  0.70502610    -0.45500
C1684       C  0.37270158  0.14017949  0.54360505     0.44000
N1685       N  0.25869626  0.15852578  0.56594217    -0.45500
Co1686     Co  0.31188337  0.16995275  0.66371019     0.73900
C1687       C  0.34644016  0.21604635  0.64769819    -0.05800
C1688       C  0.37526881  0.07238208  0.64190394    -0.05400
N1689       N  0.29010641  0.12771504  0.56984446    -0.24900
N1690       N  0.37509350  0.12444997  0.69290419    -0.45700
H1691       H  0.39896422  0.16059467  0.57552311     0.08000
C1692       C  0.25506425  0.20018774  0.61163475    -0.05800
Cl1693     Cl  0.31478037  0.13713737  0.62743960    -0.48800
C1694       C  0.25095663  0.12967204  0.70431115     0.43700
H1695       H  0.30081724  0.12426438  0.52813953     0.07900
N1696       N  0.28350787  0.21950666  0.64057692    -0.45500
C1697       C  0.35798335  0.62955768  0.04880424     0.43600
N1698       N  0.35161667  0.62855397  0.09167435     0.02500
C1699       C  0.23775888  0.57941760  0.15377032    -0.05400
H1700       H  0.22101834  0.66245142  0.09140732     0.07900
C1701       C  0.28312067  0.71589454  0.14931120    -0.05800
Co1702     Co  0.30070877  0.59915415  0.10333601     0.74200
N1703       N  0.25565723  0.63813823  0.10043992    -0.25000
Co1704     Co  0.25844673  0.63722811  0.14157723     0.74100
C1705       C  0.25990333  0.72039347  0.13245539     0.43700
N1706       N  0.34215054  0.68506381  0.15116575     0.02100
N1707       N  0.26296066  0.67861826  0.14217933     0.02200
N1708       N  0.26664766  0.55504766  0.12948226    -0.45800
H1709       H  0.31847828  0.60799211  0.04088229     0.07900
N1710       N  0.27170261  0.62343435  0.08561067     0.02500
N1711       N  0.26287452  0.63550332  0.18248406     0.02200
C1712       C  0.25723992  0.62542855  0.22351544     0.43800
N1713       N  0.35875380  0.67136474  0.13577541    -0.24400
C1714       C  0.33212410  0.54916078  0.12062437    -0.05300
N1715       N  0.36880567  0.63636487  0.07280850    -0.45500
N1716       N  0.24699396  0.62245411  0.19897258    -0.45700
C1717       C  0.35725189  0.54326586  0.13386725     0.43600
N1718       N  0.27093228  0.58101858  0.12630694     0.02400
N1719       N  0.35801603  0.62787371  0.17763249    -0.24400
N1720       N  0.33039811  0.61712524  0.08103839    -0.24900
N1721       N  0.34136008  0.64300933  0.19156809     0.02100
H1722       H  0.38913777  0.60023768  0.19063193     0.08000
H1723       H  0.29421373  0.64917456  0.23642183     0.08000
N1724       N  0.25455135  0.59573546  0.14067496    -0.25000
N1725       N  0.28353702  0.68954530  0.15420585    -0.24600
N1726       N  0.35110889  0.58606427  0.13307683     0.02500
C1727       C  0.24414145  0.64117222  0.05795021     0.43900
C1728       C  0.37522978  0.68929579  0.12390786    -0.05800
N1729       N  0.28295985  0.64702017  0.19477208    -0.24600
H1730       H  0.29809218  0.73006305  0.15544385     0.08000
N1731       N  0.26519455  0.62422822  0.05998970    -0.45800
H1732       H  0.39119583  0.68447994  0.11013700     0.08000
C1733       C  0.36453326  0.62343116  0.22231361     0.43700
C1734       C  0.33259935  0.61693185  0.05442402    -0.05300
Co1735     Co  0.35596235  0.62845405  0.13447310     0.73800
N1736       N  0.34635733  0.71120144  0.15077915    -0.45500
C1737       C  0.24543783  0.55227432  0.14606614     0.44000
N1738       N  0.36800609  0.56700888  0.14120388    -0.45500
Co1739     Co  0.31248147  0.66652403  0.17329144     0.73900
C1740       C  0.28073981  0.64231072  0.22108961    -0.05800
C1741       C  0.23768633  0.65031554  0.08469917    -0.05400
N1742       N  0.33000738  0.57584070  0.12107343    -0.24900
N1743       N  0.24864797  0.69633039  0.12839897    -0.45700
H1744       H  0.22261252  0.58563878  0.16788947     0.08000
C1745       C  0.37354548  0.61448299  0.19555574    -0.05800
Cl1746     Cl  0.30724415  0.63282433  0.13806879    -0.48800
C1747       C  0.36684226  0.71581502  0.13404078     0.43700
H1748       H  0.31807424  0.53576026  0.11139212     0.07900
N1749       N  0.34458632  0.64100863  0.21779930    -0.45500
C1750       C  0.37758246  0.12931982  0.04310500     0.43600
N1751       N  0.38344265  0.13318424  0.08589642     0.02500
C1752       C  0.49504589  0.18674230  0.14429177    -0.05400
H1753       H  0.51204983  0.10962036  0.06981903     0.07900
C1754       C  0.46766616  0.04813370  0.13367549    -0.05800
Co1755     Co  0.43172511  0.16673371  0.09548397     0.74200
N1756       N  0.47903062  0.13269573  0.08560841    -0.25000
Co1757     Co  0.48055992  0.12932400  0.12730461     0.74100
C1758       C  0.49097533  0.04826563  0.11578098     0.43700
N1759       N  0.40274561  0.07508125  0.14066264     0.02100
N1760       N  0.47935311  0.08848172  0.12413938     0.02200
N1761       N  0.46365875  0.21084157  0.12189544    -0.45800
H1762       H  0.41285664  0.15692505  0.03394474     0.07900
N1763       N  0.46037053  0.14725710  0.07389117     0.02500
N1764       N  0.48173371  0.12512514  0.16916942     0.02200
C1765       C  0.49484621  0.12193867  0.21002872     0.43800
N1766       N  0.38323691  0.08826375  0.12841506    -0.24400
C1767       C  0.40070432  0.21250436  0.11786957    -0.05300
N1768       N  0.36825957  0.12129819  0.06757644    -0.45500
N1769       N  0.50153591  0.13150117  0.18547736    -0.45700
C1770       C  0.37758703  0.21700510  0.13442838     0.43600
N1771       N  0.46115384  0.18489016  0.11779252     0.02400
N1772       N  0.38529250  0.12868042  0.17147651    -0.24400
N1773       N  0.40224782  0.14773998  0.07446622    -0.24900
N1774       N  0.40419494  0.11390340  0.18301390     0.02100
H1775       H  0.35465056  0.15444192  0.18814568     0.08000
H1776       H  0.45866565  0.09658446  0.22191024     0.08000
N1777       N  0.47942590  0.17047042  0.13037539    -0.25000
N1778       N  0.46176871  0.07410315  0.13748125    -0.24600
N1779       N  0.38386206  0.17424758  0.12989299     0.02500
C1780       C  0.48315225  0.13212783  0.04134512     0.43900
C1781       C  0.36627193  0.06978149  0.11871525    -0.05800
N1782       N  0.46302751  0.11140769  0.18155641    -0.24600
H1783       H  0.45752621  0.03138400  0.14289672     0.08000
N1784       N  0.46245404  0.14800359  0.04759307    -0.45800
H1785       H  0.34792361  0.07399963  0.10802893     0.08000
C1786       C  0.38354471  0.13139313  0.21620016     0.43700
C1787       C  0.39981237  0.14696525  0.04797905    -0.05300
Co1788     Co  0.38264969  0.13105858  0.12895171     0.73800
N1789       N  0.40020428  0.04885296  0.14032338    -0.45500
C1790       C  0.48426479  0.21346096  0.13886501     0.44000
N1791       N  0.36789085  0.19236287  0.14149053    -0.45500
Co1792     Co  0.43273938  0.09337538  0.16087547     0.73900
C1793       C  0.46941099  0.10853301  0.20739337    -0.05800
C1794       C  0.49461477  0.12214253  0.06650186    -0.05400
N1795       N  0.40311539  0.18611957  0.11645476    -0.24900
N1796       N  0.49700249  0.07394265  0.11105679    -0.45700
H1797       H  0.51201641  0.18052854  0.15624900     0.08000
C1798       C  0.37114996  0.14063046  0.19106670    -0.05800
Cl1799     Cl  0.43177858  0.13008951  0.12821295    -0.48800
C1800       C  0.37774693  0.04367922  0.12697229     0.43700
H1801       H  0.41391042  0.22659831  0.10821953     0.07900
N1802       N  0.40386961  0.11505192  0.20944576    -0.45500
C1803       C  0.30015208  0.25898379  0.37374308     0.43600
N1804       N  0.34148051  0.24811912  0.37147193     0.02500
C1805       C  0.39372785  0.13135421  0.31944909    -0.05400
H1806       H  0.32596244  0.11956957  0.40328385     0.07900
C1807       C  0.39623761  0.17286017  0.46017037    -0.05800
Co1808     Co  0.34904408  0.19791324  0.34100668     0.74200
N1809       N  0.34074957  0.15199091  0.37863256    -0.25000
Co1810     Co  0.38339266  0.15071008  0.37990913     0.74100
C1811       C  0.37977239  0.14972571  0.46595418     0.43700
N1812       N  0.39657382  0.23290264  0.42821942     0.02100
N1813       N  0.38370147  0.15469689  0.42284928     0.02200
N1814       N  0.37027271  0.16319488  0.29717903    -0.45800
H1815       H  0.28717048  0.22211894  0.35015567     0.07900
N1816       N  0.32815591  0.16992563  0.36354695     0.02500
N1817       N  0.42610875  0.15142474  0.38056037     0.02200
C1818       C  0.46839819  0.14289807  0.37692647     0.43800
N1819       N  0.38301468  0.25047879  0.41375926    -0.24400
C1820       C  0.37398878  0.22851742  0.29241864    -0.05300
N1821       N  0.32505224  0.26689721  0.38028474    -0.45500
N1822       N  0.44359095  0.13389982  0.37056166    -0.45700
C1823       C  0.39023025  0.25237841  0.28880000     0.43600
N1824       N  0.36976472  0.16711197  0.32324514     0.02400
N1825       N  0.42483786  0.24802132  0.37257212    -0.24400
N1826       N  0.32874599  0.22875396  0.35924090    -0.24900
N1827       N  0.43793563  0.23030909  0.38729227     0.02100
H1828       H  0.43803971  0.27771887  0.34391070     0.08000
H1829       H  0.47949172  0.18076170  0.39995204     0.08000
N1830       N  0.38310965  0.14880647  0.33715827    -0.25000
N1831       N  0.39743518  0.17442627  0.43344829    -0.24600
N1832       N  0.38296000  0.24594062  0.33064779     0.02500
C1833       C  0.29620191  0.14666668  0.38016963     0.43900
C1834       C  0.37075948  0.26757458  0.43029158    -0.05800
N1835       N  0.43829626  0.17132037  0.39261072    -0.24600
H1836       H  0.40591269  0.18635261  0.47381881     0.08000
N1837       N  0.30174648  0.16743351  0.36385808    -0.45800
H1838       H  0.35847368  0.28442051  0.42421846     0.08000
C1839       C  0.46873476  0.25167142  0.36649774     0.43700
C1840       C  0.30247481  0.23391413  0.35958081    -0.05300
Co1841     Co  0.38308899  0.24885826  0.37215930     0.73800
N1842       N  0.39466318  0.23711298  0.45419249    -0.45500
C1843       C  0.38495326  0.14108607  0.29289559     0.44000
N1844       N  0.39558250  0.26168499  0.31344282    -0.45500
Co1845     Co  0.41784277  0.20228388  0.41059554     0.73900
C1846       C  0.46474883  0.16760222  0.39152353    -0.05800
C1847       C  0.32203553  0.13638195  0.39012033    -0.05400
N1848       N  0.37030090  0.22624441  0.31886923    -0.24900
N1849       N  0.37261268  0.13937904  0.44179860    -0.45700
H1850       H  0.40556648  0.11384775  0.32445988     0.08000
C1851       C  0.44268655  0.26233795  0.35851778    -0.05800
Cl1852     Cl  0.38334882  0.19981875  0.37589731    -0.48800
C1853       C  0.37837783  0.25837574  0.45706780     0.43700
H1854       H  0.36642992  0.21502100  0.27749344     0.07900
N1855       N  0.46410990  0.23150300  0.38385414    -0.45500
C1856       C  0.53817389  0.87050682  0.63913584     0.43600
N1857       N  0.58093647  0.86378073  0.63430449     0.02500
C1858       C  0.63539910  0.74803130  0.58349195    -0.05400
H1859       H  0.57658307  0.73583832  0.66988687     0.07900
C1860       C  0.64376513  0.78838402  0.71874497    -0.05800
Co1861     Co  0.58879072  0.81320559  0.60358837     0.74200
N1862       N  0.58521428  0.76874257  0.64343467    -0.25000
Co1863     Co  0.62585663  0.76821913  0.64069536     0.74100
C1864       C  0.62620853  0.76599984  0.72388310     0.43700
N1865       N  0.64288198  0.84881064  0.68793234     0.02100
N1866       N  0.62908826  0.77201998  0.68170129     0.02200
N1867       N  0.61183752  0.77831721  0.55900978    -0.45800
H1868       H  0.52830459  0.83203150  0.61659264     0.07900
N1869       N  0.57034015  0.78479159  0.62858317     0.02500
N1870       N  0.66643809  0.76882871  0.63695323     0.02200
C1871       C  0.70506007  0.76052100  0.62130977     0.43800
N1872       N  0.62737439  0.86652159  0.67549917    -0.24400
C1873       C  0.60881737  0.84306463  0.55295482    -0.05300
N1874       N  0.56289762  0.88065067  0.64473522    -0.45500
N1875       N  0.67987606  0.75205984  0.62186390    -0.45700
C1876       C  0.62538832  0.86614842  0.54687848     0.43600
N1877       N  0.60953833  0.78268826  0.58500848     0.02400
N1878       N  0.66734801  0.86508329  0.63113878    -0.24400
N1879       N  0.56900223  0.84350813  0.62261512    -0.24900
N1880       N  0.68073175  0.84668087  0.64487408     0.02100
H1881       H  0.68155712  0.89822182  0.60684242     0.08000
H1882       H  0.72349045  0.79666205  0.64281409     0.08000
N1883       N  0.62314702  0.76532562  0.59961732    -0.25000
N1884       N  0.64396776  0.79082301  0.69207266    -0.24600
N1885       N  0.62168459  0.86155368  0.58996798     0.02500
C1886       C  0.54290615  0.75916347  0.64916688     0.43900
C1887       C  0.61634516  0.88221214  0.69454772    -0.05800
N1888       N  0.68125626  0.78800287  0.64680353    -0.24600
H1889       H  0.65438778  0.80082460  0.73267580     0.08000
N1890       N  0.54454353  0.77921277  0.63083565    -0.45800
H1891       H  0.60249140  0.89856365  0.69101244     0.08000
C1892       C  0.71211959  0.87011041  0.62798162     0.43700
C1893       C  0.54256406  0.84598743  0.62460042    -0.05300
Co1894     Co  0.62422805  0.86551128  0.63267632     0.73800
N1895       N  0.64322725  0.85136125  0.71418445    -0.45500
C1896       C  0.62847681  0.75709729  0.55698301     0.44000
N1897       N  0.63280479  0.87655933  0.57084849    -0.45500
Co1898     Co  0.66263512  0.81862134  0.66812895     0.73900
C1899       C  0.70659647  0.78403429  0.63854702    -0.05800
C1900       C  0.56971589  0.75225406  0.65740404    -0.05400
N1901       N  0.60783766  0.84164644  0.57974428    -0.24900
N1902       N  0.61819289  0.75645663  0.70007538    -0.45700
H1903       H  0.64788145  0.73132094  0.58947229     0.08000
C1904       C  0.68583374  0.88095396  0.61929663    -0.05800
Cl1905     Cl  0.62531611  0.81662026  0.63625396    -0.48800
C1906       C  0.62710325  0.87195000  0.72021004     0.43700
H1907       H  0.59945740  0.82921767  0.53943674     0.07900
N1908       N  0.70695059  0.84903996  0.64366319    -0.45500
C1909       C  0.14251418  0.29700215  0.38087538     0.43600
N1910       N  0.14380384  0.34035390  0.37987009     0.02500
C1911       C  0.24877798  0.41769764  0.33363610    -0.05400
H1912       H  0.27541986  0.35446003  0.40859144     0.07900
C1913       C  0.20888228  0.39462104  0.46911342    -0.05800
Co1914     Co  0.19236130  0.35911770  0.35006514     0.74200
N1915       N  0.23888887  0.35961193  0.38636005    -0.25000
Co1916     Co  0.23039710  0.39964285  0.38950576     0.74100
C1917       C  0.23374462  0.37920538  0.46927208     0.43700
N1918       N  0.14879687  0.39502477  0.43986861     0.02100
N1919       N  0.22733484  0.39464163  0.43010346     0.02200
N1920       N  0.22493649  0.38973598  0.30778899    -0.45800
H1921       H  0.18212179  0.29348949  0.35774852     0.07900
N1922       N  0.22436021  0.34343903  0.37181990     0.02500
N1923       N  0.22128117  0.43975391  0.39259709     0.02200
C1924       C  0.22203179  0.48230148  0.38890622     0.43800
N1925       N  0.13266803  0.38018520  0.42539509    -0.24400
C1926       C  0.15886344  0.37632867  0.30225815    -0.05300
N1927       N  0.12934993  0.31969016  0.38839684    -0.45500
N1928       N  0.23476576  0.45958382  0.38175417    -0.45700
C1929       C  0.13268025  0.38782237  0.29739229     0.43600
N1930       N  0.21823641  0.38727868  0.33325679     0.02400
N1931       N  0.12943469  0.42503153  0.38552320    -0.24400
N1932       N  0.16578380  0.33229731  0.36742798    -0.24900
N1933       N  0.14418682  0.43823024  0.40284526     0.02100
H1934       H  0.10067426  0.43953805  0.35622360     0.08000
H1935       H  0.18545699  0.48754937  0.41604888     0.08000
N1936       N  0.23228041  0.40308054  0.34868334    -0.25000
N1937       N  0.20627029  0.40274664  0.44363499    -0.24600
N1938       N  0.13895766  0.38451868  0.34003056     0.02500
C1939       C  0.25639327  0.31930001  0.38690488     0.43900
C1940       C  0.11643570  0.36720122  0.44275129    -0.05800
N1941       N  0.20075276  0.44810326  0.40667790    -0.24600
H1942       H  0.19460061  0.39775772  0.48503407     0.08000
N1943       N  0.23449271  0.31886845  0.37107977    -0.45800
H1944       H  0.10044320  0.35385727  0.43737921     0.08000
C1945       C  0.12167343  0.46968465  0.38415440     0.43700
C1946       C  0.16664069  0.30546966  0.36702342    -0.05300
Co1947     Co  0.13498025  0.38237792  0.38257519     0.73800
N1948       N  0.14456813  0.39354442  0.46579600    -0.45500
C1949       C  0.24392820  0.40883598  0.30655249     0.44000
N1950       N  0.12131859  0.39261812  0.32167452    -0.45500
Co1951     Co  0.17494282  0.42118095  0.42371180     0.73900
C1952       C  0.19994254  0.47491230  0.40611869    -0.05800
C1953       C  0.25952558  0.34613203  0.39671761    -0.05400
N1954       N  0.16094261  0.37504854  0.32880918    -0.24900
N1955       N  0.24425179  0.38053182  0.44470179    -0.45700
H1956       H  0.26409295  0.43088804  0.34104930     0.08000
C1957       C  0.11432572  0.44357489  0.37241153    -0.05800
Cl1958     Cl  0.18297211  0.39044805  0.38638600    -0.48800
C1959       C  0.12459292  0.37643899  0.46953631     0.43700
H1960       H  0.17388355  0.36958506  0.28824448     0.07900
N1961       N  0.14009725  0.46425541  0.40268168    -0.45500
C1962       C  0.53170514  0.62902288  0.77685376     0.43600
N1963       N  0.57394766  0.62474981  0.78214752     0.02500
C1964       C  0.63360860  0.56806291  0.89288631    -0.05400
H1965       H  0.56653036  0.65580878  0.90689828     0.07900
C1966       C  0.63642691  0.70990493  0.85394608    -0.05800
Co1967     Co  0.58675824  0.59197330  0.82965960     0.74200
N1968       N  0.58102545  0.62844852  0.87660741    -0.25000
Co1969     Co  0.62388008  0.62951278  0.87497898     0.74100
C1970       C  0.62452377  0.71493624  0.87958787     0.43700
N1971       N  0.62787236  0.68196657  0.79339905     0.02100
N1972       N  0.62416884  0.67238227  0.87242938     0.02200
N1973       N  0.60922581  0.54741269  0.86124477    -0.45800
H1974       H  0.52247716  0.60222749  0.81304589     0.07900
N1975       N  0.56797246  0.61311352  0.85963845     0.02500
N1976       N  0.66657157  0.63069600  0.86991580     0.02200
C1977       C  0.70964412  0.62866687  0.87388558     0.43800
N1978       N  0.61312616  0.66749386  0.77736510    -0.24400
C1979       C  0.61039474  0.54567147  0.79402387    -0.05300
N1980       N  0.55568003  0.63581147  0.76644521    -0.45500
N1981       N  0.68612446  0.62101740  0.88540994    -0.45700
C1982       C  0.62597243  0.54522668  0.76918431     0.43600
N1983       N  0.60968950  0.57353058  0.85764358     0.02400
N1984       N  0.65669334  0.62852397  0.77395309    -0.24400
N1985       N  0.56325776  0.61096259  0.80183958    -0.24900
N1986       N  0.67099174  0.64247338  0.79081103     0.02100
H1987       H  0.66698755  0.60652952  0.73856812     0.08000
H1988       H  0.71592269  0.65352219  0.83570807     0.08000
N1989       N  0.62355423  0.58660679  0.87576816    -0.25000
N1990       N  0.63540334  0.68355982  0.85131436    -0.24600
N1991       N  0.61780695  0.58568831  0.77957138     0.02500
C1992       C  0.53629703  0.63187914  0.88164136     0.43900
C1993       C  0.59880810  0.68359490  0.76151557    -0.05800
N1994       N  0.67634863  0.64392118  0.84913488    -0.24600
H1995       H  0.64554240  0.72349916  0.83981779     0.08000
N1996       N  0.54171217  0.61459954  0.86202697    -0.45800
H1997       H  0.58583020  0.67731411  0.74550845     0.08000
C1998       C  0.69972756  0.62758898  0.76304489     0.43700
C1999       C  0.53658625  0.61206437  0.79992469    -0.05300
Co2000     Co  0.61528350  0.62658196  0.77769453     0.73800
N2001       N  0.62514096  0.70794164  0.78867399    -0.45500
C2002       C  0.62377186  0.54216440  0.88297249     0.44000
N2003       N  0.62951101  0.57066567  0.76144875    -0.45500
Co2004     Co  0.65282347  0.66316588  0.82113655     0.73900
C2005       C  0.70298870  0.64376714  0.85000493    -0.05800
C2006       C  0.56242035  0.64130548  0.89153833    -0.05400
N2007       N  0.60659538  0.57181537  0.79899197    -0.24900
N2008       N  0.61702997  0.69086639  0.89021762    -0.45700
H2009       H  0.64525617  0.57217289  0.91055527     0.08000
C2010       C  0.67313031  0.61818704  0.75554863    -0.05800
Cl2011     Cl  0.61976606  0.62777434  0.82607267    -0.48800
C2012       C  0.60665207  0.71027193  0.76908684     0.43700
H2013       H  0.60299956  0.52922627  0.80603854     0.07900
N2014       N  0.69674016  0.64289818  0.78480157    -0.45500
C2015       C  0.28100214  0.38324002  0.62624112     0.43600
N2016       N  0.32386262  0.38715180  0.62032581     0.02500
C2017       C  0.37887448  0.45153864  0.51035542    -0.05400
H2018       H  0.30927023  0.37029113  0.49285738     0.07900
C2019       C  0.37511536  0.31035113  0.53044781    -0.05800
Co2020     Co  0.33326209  0.42489226  0.57445629     0.74200
N2021       N  0.32400543  0.39381535  0.52548144    -0.25000
Co2022     Co  0.36533960  0.39233257  0.52337718     0.74100
C2023       C  0.35870458  0.31178962  0.50623038     0.43700
N2024       N  0.37946194  0.33089413  0.59762999     0.02100
N2025       N  0.36400576  0.35120679  0.52141305     0.02200
N2026       N  0.35932744  0.47225346  0.54528259    -0.45800
H2027       H  0.27187972  0.41381612  0.59315531     0.07900
N2028       N  0.31192610  0.40684975  0.54482640     0.02500
N2029       N  0.40691395  0.39040428  0.52336262     0.02200
C2030       C  0.44825559  0.39442207  0.51327537     0.43800
N2031       N  0.36729424  0.34263050  0.61796312    -0.24400
C2032       C  0.35527912  0.46784632  0.60913759    -0.05300
N2033       N  0.30547066  0.37427203  0.63484488    -0.45500
N2034       N  0.42332472  0.40227026  0.50635638    -0.45700
C2035       C  0.37094182  0.46996321  0.63315996     0.43600
N2036       N  0.35474175  0.44620383  0.54578933     0.02400
N2037       N  0.40964182  0.38280089  0.61928905    -0.24400
N2038       N  0.31245510  0.40332760  0.60265679    -0.24900
N2039       N  0.42126453  0.37001227  0.59926449     0.02100
H2040       H  0.42621210  0.40113891  0.65461011     0.08000
H2041       H  0.46120998  0.36493858  0.54645237     0.08000
N2042       N  0.36644494  0.43361278  0.52592096    -0.25000
N2043       N  0.37722720  0.33581601  0.53838994    -0.24600
N2044       N  0.36743619  0.42818935  0.62286614     0.02500
C2045       C  0.28009058  0.38959871  0.52304450     0.43900
C2046       C  0.35970652  0.32320024  0.63513395    -0.05800
N2047       N  0.41965803  0.37501122  0.54071181    -0.24600
H2048       H  0.38503576  0.29331764  0.53962272     0.08000
N2049       N  0.28561802  0.40533599  0.54380369    -0.45800
H2050       H  0.35045916  0.32634314  0.65441372     0.08000
C2051       C  0.45431842  0.38091369  0.62392592     0.43700
C2052       C  0.28593828  0.40258212  0.60524623    -0.05300
Co2053     Co  0.36698511  0.38518073  0.62123017     0.73800
N2054       N  0.38106662  0.30452780  0.59995512    -0.45500
C2055       C  0.37384157  0.47717037  0.52306462     0.44000
N2056       N  0.37814383  0.44460441  0.64078441    -0.45500
Co2057     Co  0.39950852  0.35264549  0.56897380     0.73900
C2058       C  0.44591304  0.37612366  0.53587978    -0.05800
C2059       C  0.30543628  0.38228030  0.51037431    -0.05400
N2060       N  0.35428730  0.44182267  0.60435857    -0.24900
N2061       N  0.35284068  0.33770782  0.50189533    -0.45700
H2062       H  0.39099883  0.44704551  0.49304548     0.08000
C2063       C  0.42919049  0.39070746  0.63597862    -0.05800
Cl2064     Cl  0.36633670  0.38873888  0.57219153    -0.48800
C2065       C  0.36908654  0.29804020  0.62307568     0.43700
H2066       H  0.34553816  0.48315921  0.59720123     0.07900
N2067       N  0.44761360  0.36840316  0.60131160    -0.45500
C2068       C  0.48704270  0.71303663  0.63154828     0.43600
N2069       N  0.47837880  0.67116661  0.63195995     0.02500
C2070       C  0.36578785  0.61488321  0.57780382    -0.05400
H2071       H  0.35086866  0.69038824  0.65621103     0.07900
C2072       C  0.39941034  0.62641835  0.72090325    -0.05800
Co2073     Co  0.43070044  0.65985273  0.59959080     0.74200
N2074       N  0.38260179  0.67259355  0.63279619    -0.25000
Co2075     Co  0.38117623  0.63048427  0.63896167     0.74100
C2076       C  0.37499972  0.64147771  0.72388513     0.43700
N2077       N  0.46082904  0.62475282  0.69474011     0.02100
N2078       N  0.38233554  0.63497410  0.68178372     0.02200
N2079       N  0.39979110  0.63532113  0.55638775    -0.45800
H2080       H  0.45205233  0.72277566  0.60350294     0.07900
N2081       N  0.40131768  0.68335362  0.61746680     0.02500
N2082       N  0.38288505  0.58828859  0.64536634     0.02200
C2083       C  0.37606021  0.54572534  0.64595622     0.43800
N2084       N  0.47844009  0.63620198  0.67892632    -0.24400
C2085       C  0.46575347  0.62888059  0.55748841    -0.05300
N2086       N  0.49536981  0.68901381  0.64118154    -0.45500
N2087       N  0.36696686  0.56944013  0.63585115    -0.45700
C2088       C  0.48919749  0.61113503  0.55928193     0.43600
N2089       N  0.40168083  0.63762853  0.58250907     0.02400
N2090       N  0.47852435  0.58825222  0.64532505    -0.24400
N2091       N  0.45982722  0.68225315  0.61683132    -0.24900
N2092       N  0.46023268  0.57756602  0.66090454     0.02100
H2093       H  0.51135032  0.57082585  0.62325158     0.08000
H2094       H  0.41181176  0.53786875  0.67356647     0.08000
N2095       N  0.38214717  0.62614958  0.59610152    -0.25000
N2096       N  0.40221690  0.62336011  0.69483973    -0.24600
N2097       N  0.47796642  0.62340253  0.59839547     0.02500
C2098       C  0.37909591  0.71730125  0.63148133     0.43900
C2099       C  0.49515593  0.65072764  0.69340264    -0.05800
N2100       N  0.40189337  0.57794431  0.66072073    -0.24600
H2101       H  0.41282410  0.61814717  0.73575638     0.08000
N2102       N  0.40000717  0.70986187  0.61626620    -0.45800
H2103       H  0.51235501  0.66138552  0.68587826     0.08000
C2104       C  0.48325591  0.54399242  0.64822909     0.43700
C2105       C  0.46386478  0.70861400  0.61501973    -0.05300
Co2106     Co  0.47892005  0.62975662  0.63863171     0.73800
N2107       N  0.46537519  0.62983178  0.72028557    -0.45500
C2108       C  0.37781220  0.62129325  0.55139473     0.44000
N2109       N  0.49560600  0.60896744  0.58518732    -0.45500
Co2110     Co  0.43127707  0.60076612  0.67812878     0.73900
C2111       C  0.39903337  0.55142057  0.66243608    -0.05800
C2112       C  0.36750254  0.69265995  0.64257783    -0.05400
N2113       N  0.46019883  0.63530040  0.58288882    -0.24900
N2114       N  0.36520829  0.64650470  0.69879429    -0.45700
H2115       H  0.34743242  0.60443705  0.58222112     0.08000
C2116       C  0.49425394  0.56842749  0.63622994    -0.05800
Cl2117     Cl  0.43016375  0.63019844  0.63880724    -0.48800
C2118       C  0.48647148  0.64664010  0.72065476     0.43700
H2119       H  0.45517456  0.63617924  0.54005499     0.07900
N2120       N  0.46259139  0.55132669  0.66364093    -0.45500
C2121       C  0.70509268  0.38176949  0.64075982     0.43600
N2122       N  0.66221311  0.38728428  0.63904988     0.02500
C2123       C  0.60365610  0.49913570  0.58278562    -0.05400
H2124       H  0.66054700  0.51995164  0.66512843     0.07900
C2125       C  0.59766037  0.46224546  0.72182971    -0.05800
Co2126     Co  0.65193869  0.43706393  0.60750348     0.74200
N2127       N  0.65359613  0.48343052  0.64397946    -0.25000
Co2128     Co  0.61274979  0.48100192  0.64208221     0.74100
C2129       C  0.61322254  0.48625193  0.72552287     0.43700
N2130       N  0.60107820  0.40055349  0.69334958     0.02100
N2131       N  0.61047838  0.47841718  0.68364864     0.02200
N2132       N  0.63014192  0.46934221  0.56138766    -0.45800
H2133       H  0.71254899  0.42124303  0.61853418     0.07900
N2134       N  0.66912657  0.46726163  0.63022732     0.02500
N2135       N  0.57208648  0.47825463  0.63955046     0.02200
C2136       C  0.53153643  0.48931389  0.63206874     0.43800
N2137       N  0.61697325  0.38334244  0.68096354    -0.24400
C2138       C  0.63637935  0.40499289  0.55849284    -0.05300
N2139       N  0.68123645  0.37039271  0.64761009    -0.45500
N2140       N  0.55691002  0.49618893  0.62743383    -0.45700
C2141       C  0.62250714  0.38045054  0.55267187     0.43600
N2142       N  0.62996889  0.46525921  0.58747150     0.02400
N2143       N  0.57610466  0.38282464  0.63672070    -0.24400
N2144       N  0.67289178  0.40845959  0.62739469    -0.24900
N2145       N  0.56225314  0.40054098  0.65068201     0.02100
H2146       H  0.56270424  0.35159412  0.61003599     0.08000
H2147       H  0.51589630  0.45406665  0.65780809     0.08000
N2148       N  0.61496588  0.48243774  0.60053448    -0.25000
N2149       N  0.59730061  0.45886130  0.69532807    -0.24600
N2150       N  0.62208158  0.38678529  0.59543555     0.02500
C2151       C  0.69520246  0.49736368  0.64535883     0.43900
C2152       C  0.63014801  0.36920809  0.70009419    -0.05800
N2153       N  0.55846081  0.45958026  0.65212325    -0.24600
H2154       H  0.58789531  0.44970067  0.73653145     0.08000
N2155       N  0.69433758  0.47530912  0.62986140    -0.45800
H2156       H  0.64526715  0.35406527  0.69653562     0.08000
C2157       C  0.53137815  0.37829042  0.63158465     0.43700
C2158       C  0.69931833  0.40687605  0.62769924    -0.05300
Co2159     Co  0.61928886  0.38361788  0.63810202     0.73800
N2160       N  0.60252887  0.39906092  0.71971444    -0.45500
C2161       C  0.61368535  0.49016451  0.55676415     0.44000
N2162       N  0.61399147  0.37007153  0.57649132    -0.45500
Co2163     Co  0.57938217  0.42966624  0.67312990     0.73900
C2164       C  0.53224306  0.46516433  0.64903817    -0.05800
C2165       C  0.66828875  0.50269099  0.65472901    -0.05400
N2166       N  0.63504503  0.40731172  0.58502431    -0.24900
N2167       N  0.62021663  0.49551835  0.70105701    -0.45700
H2168       H  0.59085750  0.51590487  0.58769070     0.08000
C2169       C  0.55798936  0.36770472  0.62358226    -0.44200
Cl2170     Cl  0.61587460  0.43243647  0.64025286    -0.48800
C2171       C  0.62033144  0.37977180  0.72584225     0.43700
H2172       H  0.64624820  0.41880151  0.54509130     0.07900
N2173       N  0.53613082  0.39846519  0.64824198    -0.45500
C2174       C  0.27962800  0.52215097  0.37984909     0.43600
N2175       N  0.32021124  0.52276164  0.39258745     0.02500
C2176       C  0.38477363  0.62880787  0.44809069    -0.05400
H2177       H  0.31739424  0.65106858  0.36226825     0.07900
C2178       C  0.38435585  0.58930429  0.30616962    -0.05800
Co2179     Co  0.33205283  0.57058763  0.42425201     0.74200
N2180       N  0.32982232  0.61736759  0.38703861    -0.25000
Co2181     Co  0.37258843  0.61303698  0.38628812     0.74100
C2182       C  0.37074127  0.61438030  0.30010137     0.43700
N2183       N  0.37676075  0.52955062  0.33810798     0.02100
N2184       N  0.37325818  0.60902517  0.34328522     0.02200
N2185       N  0.35627339  0.60065537  0.46876909    -0.45800
H2186       H  0.26856077  0.55915226  0.40440609     0.07900
N2187       N  0.31564633  0.60090081  0.40211958     0.02500
N2188       N  0.41502850  0.60673135  0.38580866     0.02200
C2189       C  0.45796811  0.61072622  0.38823215     0.43800
N2190       N  0.36132940  0.51414121  0.35287043    -0.24400
C2191       C  0.35345449  0.53890862  0.47316114    -0.05300
N2192       N  0.30323669  0.50941409  0.37771953    -0.45500
N2193       N  0.43426905  0.62260346  0.39471593    -0.45700
C2194       C  0.37061782  0.51570192  0.47746094     0.43600
N2195       N  0.35559974  0.59802347  0.44260521     0.02400
N2196       N  0.40185575  0.51122555  0.39439439    -0.24400
N2197       N  0.30899812  0.54342136  0.40435057    -0.24900
N2198       N  0.41782545  0.52644018  0.37995060     0.02100
H2199       H  0.40843608  0.47662853  0.41952370     0.08000
H2200       H  0.46509902  0.57126796  0.36602949     0.08000
N2201       N  0.37180646  0.61427960  0.42942827    -0.25000
N2202       N  0.38487686  0.58762642  0.33290842    -0.24600
N2203       N  0.36094556  0.51948537  0.43560435     0.02500
C2204       C  0.28565082  0.62689576  0.38589187     0.43900
C2205       C  0.34680763  0.49874545  0.33688240    -0.05800
N2206       N  0.42509898  0.58526125  0.37412692    -0.24600
H2207       H  0.39258818  0.57459498  0.29269363     0.08000
N2208       N  0.28975353  0.60596678  0.40210270    -0.45800
H2209       H  0.33276797  0.48362924  0.34316296     0.08000
C2210       C  0.44349702  0.49758933  0.39890560     0.43700
C2211       C  0.28295362  0.54421383  0.39818676    -0.05300
Co2212     Co  0.36101324  0.51620085  0.39405577     0.73800
N2213       N  0.37386896  0.52529721  0.31218985    -0.45500
C2214       C  0.37413265  0.61950998  0.47421305     0.44000
N2215       N  0.37479907  0.50489562  0.45308511    -0.45500
Co2216     Co  0.40155195  0.55712932  0.35601589     0.73900
C2217       C  0.45180741  0.58602214  0.37467613    -0.05800
C2218       C  0.31226914  0.63477765  0.37562197    -0.05400
N2219       N  0.34909946  0.54006935  0.44683080    -0.24900
N2220       N  0.36433233  0.62561424  0.32413696    -0.45700
H2221       H  0.39962487  0.64392097  0.44403396     0.08000
C2222       C  0.41626816  0.49254509  0.40709272    -0.05800
Cl2223     Cl  0.36696251  0.56446814  0.39015433    -0.48800
C2224       C  0.35474810  0.50653960  0.31017240     0.43700
H2225       H  0.34750180  0.55388091  0.48747017     0.07900
N2226       N  0.44319101  0.51861360  0.38166580    -0.45500
C2227       C  0.53471563  0.11807156  0.99037409     0.43600
N2228       N  0.57521110  0.12838414  0.98269833     0.02500
C2229       C  0.63527784  0.19021363  0.87611732    -0.05400
H2230       H  0.57006649  0.10123249  0.85572112     0.07900
C2231       C  0.64423125  0.04950062  0.91396952    -0.05800
Co2232     Co  0.58336710  0.16321115  0.93509278     0.74200
N2233       N  0.58230559  0.12679192  0.88832353    -0.25000
Co2234     Co  0.62520390  0.12846530  0.89068751     0.74100
C2235       C  0.62969354  0.04259817  0.89004613     0.43700
N2236       N  0.63661805  0.07911365  0.97284041     0.02100
N2237       N  0.62900873  0.08572134  0.89472620     0.02200
N2238       N  0.60704824  0.20999604  0.90530185    -0.45800
H2239       H  0.51969341  0.14401267  0.95490570     0.07900
N2240       N  0.56783847  0.14081805  0.90542016     0.02500
N2241       N  0.66785388  0.13041340  0.89494663     0.02200
C2242       C  0.71054175  0.13262340  0.88892455     0.43800
N2243       N  0.61991881  0.09127855  0.98904740    -0.24400
C2244       C  0.59868358  0.21227704  0.96986387    -0.05300
N2245       N  0.55980271  0.11466114  0.99900772    -0.45500
N2246       N  0.68639576  0.13857918  0.87760770    -0.45700
C2247       C  0.61272809  0.21518985  0.99515107     0.43600
N2248       N  0.60579738  0.18363158  0.90692227     0.02400
N2249       N  0.65566800  0.13720197  0.99075431    -0.24400
N2250       N  0.56200569  0.14100285  0.96361129    -0.24900
N2251       N  0.67276589  0.12479759  0.97509407     0.02100
H2252       H  0.65991377  0.16333280  0.02439299     0.08000
H2253       H  0.71923302  0.11174924  0.92895914     0.08000
N2254       N  0.62205654  0.17119957  0.89009359    -0.25000
N2255       N  0.64259636  0.07613532  0.91537397    -0.24600
N2256       N  0.61128898  0.17369838  0.98541172     0.02500
C2257       C  0.53791986  0.12280807  0.88136615     0.43900
C2258       C  0.60832996  0.07278979  0.00460622    -0.05800
N2259       N  0.67898591  0.11983085  0.91649598    -0.24600
H2260       H  0.65422601  0.03662648  0.92828574     0.08000
N2261       N  0.54185416  0.13902654  0.90196489    -0.45800
H2262       H  0.59408024  0.07680882  0.02036618     0.08000
C2263       C  0.69654172  0.14706827  0.00250553     0.43700
C2264       C  0.53580708  0.13611420  0.96707759    -0.05300
Co2265     Co  0.61541225  0.13257500  0.98747749     0.73800
N2266       N  0.63751424  0.05293644  0.97637373    -0.45500
C2267       C  0.62509677  0.21593408  0.88632818     0.44000
N2268       N  0.61955267  0.19049119  0.00369835    -0.45500
Co2269     Co  0.65815771  0.09991847  0.94505497     0.73900
C2270       C  0.70547654  0.12045826  0.91462474    -0.05800
C2271       C  0.56479550  0.11430843  0.87204074    -0.05400
N2272       N  0.59914506  0.18579891  0.96539358    -0.24900
N2273       N  0.62066383  0.06605060  0.87895347    -0.45700
H2274       H  0.65067023  0.18657047  0.86137102     0.08000
C2275       C  0.66877438  0.15195899  0.00832579    -0.05800
Cl2276     Cl  0.62056100  0.13104017  0.93935610    -0.48800
C2277       C  0.61984750  0.04732363  0.99571756     0.43700
H2278       H  0.58931416  0.22735236  0.95729895     0.07900
N2279       N  0.69786292  0.12949747  0.98200242    -0.45500
C2280       C  0.21092345  0.88963951  0.62972767     0.43600
N2281       N  0.16831120  0.89691548  0.63108670     0.02500
C2282       C  0.10892578  0.01552789  0.58923286    -0.05400
H2283       H  0.18146655  0.02482825  0.66261304     0.07900
C2284       C  0.12139489  0.97089207  0.72451661    -0.05800
Co2285     Co  0.15582002  0.94794245  0.60186133     0.74200
N2286       N  0.16636419  0.99204194  0.63978256    -0.25000
Co2287     Co  0.12497842  0.99269777  0.64442368     0.74100
C2288       C  0.13787948  0.99467501  0.72718232     0.43700
N2289       N  0.11595792  0.91040907  0.69362430     0.02100
N2290       N  0.12824609  0.98879309  0.68578378     0.02200
N2291       N  0.13019294  0.98694613  0.56140992    -0.45800
H2292       H  0.21828614  0.92789346  0.60530855     0.07900
N2293       N  0.17784686  0.97504222  0.62329788     0.02500
N2294       N  0.08384420  0.99148640  0.64804444     0.02200
C2295       C  0.04229173  0.99951887  0.64321627     0.43800
N2296       N  0.12894829  0.89252889  0.67908488    -0.24400
C2297       C  0.13104013  0.91844416  0.55471034    -0.05300
N2298       N  0.18730768  0.87985324  0.63908340    -0.45500
N2299       N  0.06684070  0.00868315  0.63727210    -0.45700
C2300       C  0.11602083  0.89410543  0.55050142     0.43600
N2301       N  0.13277680  0.97942312  0.58676063     0.02400
N2302       N  0.08365737  0.89557550  0.64046481    -0.24400
N2303       N  0.17850081  0.91712142  0.61741192    -0.24900
N2304       N  0.07187086  0.91308223  0.65638862     0.02100
H2305       H  0.06760167  0.86451815  0.61540257     0.08000
H2306       H  0.03023731  0.96238198  0.66751542     0.08000
N2307       N  0.12108395  0.99619489  0.60333672    -0.25000
N2308       N  0.11616969  0.96901735  0.69833143    -0.24600
N2309       N  0.12245593  0.89947283  0.59309116     0.02500
C2310       C  0.21016520  0.99915549  0.63677946     0.43900
C2311       C  0.14080661  0.87524811  0.69660566    -0.05800
N2312       N  0.07182373  0.97171810  0.66064044    -0.24600
H2313       H  0.11465446  0.95719154  0.73989643     0.08000
N2314       N  0.20382592  0.97881057  0.62068318    -0.45800
H2315       H  0.15262892  0.85789660  0.69124663     0.08000
C2316       C  0.03915248  0.89074883  0.64063115     0.43700
C2317       C  0.20497396  0.91421618  0.61544375    -0.05300
Co2318     Co  0.12593786  0.89499771  0.63596993     0.73800
N2319       N  0.11780928  0.90643529  0.71964291    -0.45500
C2320       C  0.11488259  0.00934818  0.56158226     0.44000
N2321       N  0.11121502  0.88334271  0.57521920    -0.45500
Co2322     Co  0.09370138  0.94096545  0.67750836     0.73900
C2323       C  0.04531554  0.97535588  0.65915790    -0.05800
C2324       C  0.18520778  0.00807587  0.64955748    -0.05400
N2325       N  0.13396905  0.92010965  0.58121601    -0.24900
N2326       N  0.14183391  0.00432243  0.70219561    -0.45700
H2327       H  0.09880706  0.03281074  0.59743913     0.08000
C2328       C  0.06439918  0.88053826  0.62946002    -0.05800
Cl2329     Cl  0.12515721  0.94399142  0.63996145    -0.48800
C2330       C  0.13307047  0.88471051  0.72364986     0.43700
H2331       H  0.13919219  0.93232622  0.54022113     0.07900
N2332       N  0.04548161  0.91084978  0.65709486    -0.45500
C2333       C  0.12756217  0.71070562  0.89120499     0.43600
N2334       N  0.12249995  0.66777522  0.89451962     0.02500
C2335       C  0.06397891  0.60585531  0.00303035    -0.05400
H2336       H  0.14341449  0.66427153  0.02786942     0.07900
C2337       C  0.20360127  0.60607508  0.97243153    -0.05800
Co2338     Co  0.08867749  0.65646347  0.94253986     0.74200
N2339       N  0.12293591  0.65752798  0.99087468    -0.25000
Co2340     Co  0.12253130  0.61643280  0.98701902     0.74100
C2341       C  0.20472063  0.62121046  0.99718932     0.43700
N2342       N  0.17745648  0.60803401  0.90851302     0.02100
N2343       N  0.16382755  0.61567075  0.98651941     0.02200
N2344       N  0.04200828  0.63370525  0.97460665    -0.45800
H2345       H  0.10253266  0.71809418  0.92892520     0.07900
N2346       N  0.11009701  0.67330788  0.97398031     0.02500
N2347       N  0.12176851  0.57551352  0.98212430     0.02200
C2348       C  0.11424392  0.53381715  0.98767489     0.43800
N2349       N  0.16504622  0.62307851  0.89046105    -0.24400
C2350       C  0.04125145  0.63852028  0.90934056    -0.05300
N2351       N  0.13401683  0.68681411  0.87966452    -0.45500
N2352       N  0.10881778  0.55837273  0.99735822    -0.45700
C2353       C  0.03648357  0.62302989  0.88552340     0.43600
N2354       N  0.06807492  0.63345168  0.97002334     0.02400
N2355       N  0.12233304  0.58177905  0.88787429    -0.24400
N2356       N  0.10949236  0.67829240  0.91494525    -0.24900
N2357       N  0.13663330  0.56814405  0.90560926     0.02100
H2358       H  0.09788477  0.56806377  0.85491494     0.08000
H2359       H  0.14187431  0.52222032  0.95294684     0.08000
N2360       N  0.08129064  0.61774835  0.98664681    -0.25000
N2361       N  0.17735655  0.60393414  0.96725581    -0.24600
N2362       N  0.07923999  0.62642876  0.89178990     0.02500
C2363       C  0.12474075  0.69955812  0.00428004     0.43900
C2364       C  0.18412597  0.63440737  0.87508288    -0.05800
N2365       N  0.13566790  0.56369348  0.96325732    -0.24600
H2366       H  0.21972091  0.59800334  0.96047710     0.08000
N2367       N  0.11024210  0.69869310  0.98151580    -0.45800
H2368       H  0.18062145  0.64788408  0.85844084     0.08000
C2369       C  0.12022407  0.53696213  0.88158723     0.43700
C2370       C  0.11146071  0.70479607  0.91446430    -0.05300
Co2371     Co  0.12219346  0.62487941  0.88985421     0.73800
N2372       N  0.20377987  0.60809225  0.90646296    -0.45500
C2373       C  0.03786711  0.61631657  0.99488030     0.44000
N2374       N  0.06095954  0.61593896  0.87559817    -0.45500
Co2375     Co  0.15715740  0.58579034  0.93611486     0.73900
C2376       C  0.13243138  0.53719782  0.96531731    -0.05800
C2377       C  0.13307753  0.67220442  0.01054565    -0.05400
N2378       N  0.06779818  0.63929880  0.91177966    -0.24900
N2379       N  0.17938060  0.62616281  0.00486470    -0.45700
H2380       H  0.06938651  0.59301742  0.01966000     0.08000
C2381       C  0.11088330  0.56350092  0.87161953    -0.05800
Cl2382     Cl  0.12268367  0.62101011  0.93870337    -0.48800
C2383       C  0.20973234  0.62413197  0.88581291     0.43700
H2384       H  0.02711784  0.64711716  0.92323752     0.07900
N2385       N  0.13593795  0.54196339  0.90253217    -0.45500
C2386       C  0.98530849  0.53301338  0.13134647     0.43600
N2387       N  0.98105970  0.57468374  0.14085057     0.02500
C2388       C  0.86884110  0.63825150  0.19064510    -0.05400
H2389       H  0.85116831  0.56977747  0.10817590     0.07900
C2390       C  0.91201655  0.63593116  0.05022963    -0.05800
Co2391     Co  0.93044673  0.58673222  0.16982414     0.74200
N2392       N  0.88456189  0.58279130  0.13224908    -0.25000
Co2393     Co  0.88718869  0.62540192  0.13013996     0.74100
C2394       C  0.88689715  0.62312119  0.04433836     0.43700
N2395       N  0.97160836  0.62928901  0.08297910     0.02100
N2396       N  0.89188460  0.62504638  0.08732948     0.02200
N2397       N  0.89771822  0.61145747  0.21318309    -0.45800
H2398       H  0.94554560  0.52278875  0.15171957     0.07900
N2399       N  0.90139371  0.56910267  0.14757665     0.02500
N2400       N  0.89191110  0.66797877  0.12823196     0.02200
C2401       C  0.88671245  0.71104457  0.12903631     0.43800
N2402       N  0.98744186  0.61493343  0.09859574    -0.24400
C2403       C  0.96169501  0.60778876  0.21878610    -0.05300
N2404       N  0.99659789  0.55726631  0.12832049    -0.45500
N2405       N  0.87556672  0.68735354  0.13664051    -0.45700
C2406       C  0.98588137  0.62324021  0.22228036     0.43600
N2407       N  0.90149684  0.61023599  0.18709444     0.02400
N2408       N  0.98692745  0.65759110  0.13820383    -0.24400
N2409       N  0.95982004  0.56347995  0.15153129    -0.24900
N2410       N  0.97098449  0.67189223  0.12268069     0.02100
H2411       H  0.01901278  0.66813492  0.16464878     0.08000
H2412       H  0.92592927  0.71784755  0.10622824     0.08000
N2413       N  0.88492571  0.62553485  0.17299785    -0.25000
N2414       N  0.91337259  0.63621100  0.07684823    -0.24600
N2415       N  0.97977923  0.61715573  0.18060041     0.02500
C2416       C  0.87606002  0.53875210  0.13234162     0.43900
C2417       C  0.00392673  0.60037714  0.08348382    -0.05800
N2418       N  0.91305041  0.67790222  0.11592834    -0.24600
H2419       H  0.92664562  0.64450464  0.03682354     0.08000
N2420       N  0.89695933  0.54314483  0.14824634    -0.45800
H2421       H  0.01950605  0.58703089  0.09060856     0.08000
C2422       C  0.99554060  0.70085588  0.14153845     0.43700
C2423       C  0.96073706  0.53717121  0.14649873    -0.05300
Co2424     Co  0.98450413  0.61614189  0.13967151     0.73800
N2425       N  0.97674738  0.62572826  0.05727987    -0.45500
C2426       C  0.87750669  0.62863259  0.21730302     0.44000
N2427       N  0.99628318  0.62798910  0.19785247    -0.45500
Co2428     Co  0.94239902  0.65401884  0.09932551     0.73900
C2429       C  0.91147796  0.70464235  0.11535128    -0.05800
C2430       C  0.86759669  0.56498961  0.12143767    -0.05400
N2431       N  0.95942647  0.60529458  0.19224109    -0.24900
N2432       N  0.87529979  0.61675191  0.06827506    -0.45700
H2433       H  0.85296888  0.65216265  0.18556785     0.08000
C2434       C  0.00333426  0.67416970  0.15099334    -0.05800
Cl2435     Cl  0.93594271  0.62057592  0.13470039    -0.48800
C2436       C  0.99654380  0.60727839  0.05634689     0.43700
H2437       H  0.94823733  0.59968826  0.23363463     0.07900
N2438       N  0.97568718  0.69784023  0.12378237    -0.45500
C2439       C  0.97839389  0.22049540  0.62701639     0.43600
N2440       N  0.97376982  0.17858089  0.62092777     0.02500
C2441       C  0.86918939  0.10945583  0.56978121    -0.05400
H2442       H  0.85006970  0.18056152  0.65787232     0.07900
C2443       C  0.90979047  0.11618360  0.71122228    -0.05800
Co2444     Co  0.92554985  0.16517385  0.59069733     0.74200
N2445       N  0.88018052  0.16767733  0.62938672    -0.25000
Co2446     Co  0.88439163  0.12500667  0.63100615     0.74100
C2447       C  0.88459280  0.12951858  0.71702043     0.43700
N2448       N  0.96930405  0.12337103  0.67801038     0.02100
N2449       N  0.88912358  0.12563787  0.67396645     0.02200
N2450       N  0.89658177  0.13776407  0.54785479    -0.45800
H2451       H  0.94065004  0.23071900  0.60262264     0.07900
N2452       N  0.89573298  0.18166413  0.61321342     0.02500
N2453       N  0.89078038  0.08263106  0.63268481     0.02200
C2454       C  0.88691276  0.03947904  0.63073103     0.43800
N2455       N  0.98359349  0.13865547  0.66202412    -0.24400
C2456       C  0.96115798  0.14869097  0.54160284    -0.05300
N2457       N  0.98943935  0.19633708  0.63196090    -0.45500
N2458       N  0.87509399  0.06318010  0.62384912    -0.45700
C2459       C  0.98747739  0.13602602  0.53884136     0.43600
N2460       N  0.89845451  0.14037555  0.57391643     0.02400
N2461       N  0.98514480  0.09693014  0.62211921    -0.24400
N2462       N  0.95311930  0.18953874  0.60875355    -0.24900
N2463       N  0.97032976  0.08152409  0.63753114     0.02100
H2464       H  0.01886512  0.08910249  0.59648538     0.08000
H2465       H  0.92654931  0.03286785  0.65316892     0.08000
N2466       N  0.88271137  0.12428989  0.58784279    -0.25000
N2467       N  0.91090072  0.11478743  0.68453510    -0.24600
N2468       N  0.97678666  0.13724339  0.58026978     0.02500
C2469       C  0.87258902  0.21209421  0.63239323     0.43900
C2470       C  0.00095715  0.15260339  0.67633373    -0.05800
N2471       N  0.91230784  0.07293363  0.64472370    -0.24600
H2472       H  0.92494125  0.10874470  0.72480094     0.08000
N2473       N  0.89183523  0.20772144  0.61438933    -0.45800
H2474       H  0.01618870  0.16572033  0.66838510     0.08000
C2475       C  0.99817531  0.05492529  0.61912140     0.43700
C2476       C  0.95453065  0.21624887  0.61101525    -0.05300
Co2477     Co  0.98020900  0.13781716  0.62127899     0.73800
N2478       N  0.97685634  0.12543410  0.70331985    -0.45500
C2479       C  0.87861105  0.11878115  0.54318432     0.44000
N2480       N  0.99589522  0.12982276  0.56368930    -0.45500
Co2481     Co  0.94080928  0.09780174  0.66159338     0.73900
C2482       C  0.91160909  0.04606465  0.64454023    -0.05800
C2483       C  0.86461811  0.18547411  0.64266159    -0.05400
N2484       N  0.95626606  0.14842699  0.56805971    -0.24900
N2485       N  0.87280347  0.13500181  0.69293013    -0.45700
H2486       H  0.85510458  0.09381375  0.57452380     0.08000
C2487       C  0.00319946  0.08185354  0.60949321    -0.05800
Cl2488     Cl  0.93256346  0.13134535  0.62619058    -0.48800
C2489       C  0.99642919  0.14404982  0.70352624     0.43700
H2490       H  0.94866449  0.15796734  0.52649803     0.07900
N2491       N  0.97779605  0.05614907  0.63675001    -0.45500
C2492       C  0.54126130  0.89218602  0.13436770     0.43600
N2493       N  0.58425125  0.89748837  0.13689660     0.02500
C2494       C  0.64940133  0.00571124  0.18907499    -0.05400
H2495       H  0.57286676  0.02626367  0.11243466     0.07900
C2496       C  0.63148160  0.97751054  0.05220071    -0.05800
Co2497     Co  0.59636342  0.94535625  0.17038622     0.74200
N2498       N  0.58771889  0.99323840  0.13638314    -0.25000
Co2499     Co  0.62931680  0.99294355  0.13288665     0.74100
C2500       C  0.61297405  0.00039715  0.05269290     0.43700
N2501       N  0.63937178  0.91432859  0.07823859     0.02100
N2502       N  0.62575668  0.99172137  0.09232719     0.02200
N2503       N  0.62793606  0.97446003  0.21383806    -0.45800
H2504       H  0.53328250  0.92816455  0.16144745     0.07900
N2505       N  0.57550892  0.97510256  0.15104219     0.02500
N2506       N  0.67097245  0.99190628  0.12930651     0.02200
C2507       C  0.71291192  0.99662831  0.13814565     0.43800
N2508       N  0.62640133  0.89551109  0.09160259    -0.24400
C2509       C  0.61779131  0.91238641  0.21573380    -0.05300
N2510       N  0.56537605  0.88224107  0.12606710    -0.45500
N2511       N  0.68818397  0.00652619  0.14286205    -0.45700
C2512       C  0.63246120  0.88775161  0.21973616     0.43600
N2513       N  0.62067478  0.97364159  0.18840753     0.02400
N2514       N  0.66971411  0.89501630  0.13151516    -0.24400
N2515       N  0.57359832  0.91682652  0.15140037    -0.24900
N2516       N  0.68213924  0.91331171  0.11686034     0.02100
H2517       H  0.68473698  0.86197319  0.15542661     0.08000
H2518       H  0.72409825  0.95991079  0.11335685     0.08000
N2519       N  0.63303219  0.99169386  0.17367735    -0.25000
N2520       N  0.63800182  0.97335059  0.07795223    -0.24600
N2521       N  0.62861146  0.89555174  0.17724273     0.02500
C2522       C  0.54361241  0.99850864  0.13485522     0.43900
C2523       C  0.61647619  0.87840465  0.07345573    -0.05800
N2524       N  0.68285029  0.97248697  0.11619671    -0.24600
H2525       H  0.63820776  0.96568771  0.03547141     0.08000
N2526       N  0.54921261  0.97777149  0.15107436    -0.45800
H2527       H  0.60560619  0.86030308  0.07797698     0.08000
C2528       C  0.71417542  0.88913859  0.13253606     0.43700
C2529       C  0.54694763  0.91491255  0.15120915    -0.05300
Co2530     Co  0.62718716  0.89476800  0.13428215     0.73800
N2531       N  0.63930549  0.91107175  0.05207149    -0.45500
C2532       C  0.64661153  0.99373850  0.21516457     0.44000
N2533       N  0.63873349  0.87809863  0.19498110    -0.45500
Co2534     Co  0.66096638  0.94342795  0.09684557     0.73900
C2535       C  0.70925445  0.97402504  0.12034674    -0.05800
C2536       C  0.56907481  0.00925562  0.12533345    -0.05400
N2537       N  0.61650796  0.91552478  0.18941603    -0.24900
N2538       N  0.61077664  0.00821429  0.07809209    -0.45700
H2539       H  0.66218650  0.02188978  0.18276940     0.08000
C2540       C  0.68850569  0.87884270  0.14237667    -0.05800
Cl2541     Cl  0.62847568  0.94392288  0.13353975    -0.48800
C2542       C  0.62534105  0.88888256  0.04731502     0.43700
H2543       H  0.60871683  0.92573042  0.23005004     0.07900
N2544       N  0.70852432  0.91044860  0.11689777    -0.45500
C2545       C  0.01273679  0.60058890  0.03311317    -0.15300
C2546       C  0.01382464  0.61655173  0.01161993    -0.30500
H2547       H  0.02741438  0.58472578  0.03589343     0.13700
H2548       H  0.99925092  0.63254459  0.00873382     0.14300
C2549       C  0.01838644  0.03390863  0.61909525    -0.15300
C2550       C  0.01766222  0.01383827  0.63683444    -0.30500
H2551       H  0.03624294  0.03737985  0.60721174     0.13700
H2552       H  0.99991955  0.00988050  0.64868704     0.14300
C2553       C  0.60438452  0.01810024  0.03111668    -0.15300
C2554       C  0.61972244  0.02157290  0.00970574    -0.30500
H2555       H  0.58899421  0.03274721  0.03593060     0.13700
H2556       H  0.63556002  0.00735988  0.00512537     0.14300
C2557       C  0.36890476  0.61568984  0.52369153    -0.15300
C2558       C  0.38172533  0.62629080  0.50201117    -0.30500
H2559       H  0.35192355  0.60257543  0.52105435     0.13700
H2560       H  0.39841567  0.63975615  0.50469152     0.14300
C2561       C  0.49459324  0.51682101  0.64796993    -0.15300
C2562       C  0.51047271  0.50928534  0.62798503    -0.30500
H2563       H  0.49234020  0.50426828  0.66564425     0.13700
H2564       H  0.51275791  0.52247243  0.61078729     0.14300
C2565       C  0.48217253  0.38413764  0.63358787    -0.15300
C2566       C  0.50383750  0.37202285  0.62230847    -0.30500
H2567       H  0.48488998  0.39739745  0.65042787     0.13700
H2568       H  0.50135097  0.35822369  0.60586710     0.14300
C2569       C  0.39111652  0.50050274  0.52004464    -0.15300
C2570       C  0.39138650  0.51609900  0.49822050    -0.30500
H2571       H  0.40494464  0.50476842  0.53612658     0.13700
H2572       H  0.40532296  0.53263993  0.49768216     0.14300
C2573       C  0.37838599  0.49564981  0.64575724    -0.15300
C2574       C  0.36683491  0.51904145  0.63764222    -0.30500
H2575       H  0.39409601  0.49547536  0.66066646     0.13700
H2576       H  0.35062098  0.51899533  0.62330737     0.14300
C2577       C  0.63040684  0.52355389  0.75034126    -0.15300
C2578       C  0.61533859  0.50169228  0.75016092    -0.30500
H2579       H  0.64315528  0.52803879  0.73329761     0.13700
H2580       H  0.60215982  0.49697515  0.76676279     0.14300
C2581       C  0.50623019  0.63275288  0.76298761    -0.15300
C2582       C  0.50470748  0.65041035  0.74295703    -0.30500
H2583       H  0.49036471  0.61844451  0.76656302     0.13700
H2584       H  0.52102005  0.66433215  0.73967932     0.14300
C2585       C  0.23432589  0.50850965  0.38648788    -0.15300
C2586       C  0.25511580  0.51062437  0.36998080    -0.30500
H2587       H  0.23145784  0.52244656  0.40280786     0.13700
H2588       H  0.25756188  0.49621862  0.35397228     0.14300
C2589       C  0.24979486  0.37030699  0.49169388    -0.15300
C2590       C  0.25340830  0.38697695  0.51185664    -0.30500
H2591       H  0.26478096  0.35507105  0.48745953     0.13700
H2592       H  0.23887913  0.40263991  0.51611042     0.14300
C2593       C  0.52115263  0.74004473  0.65186674    -0.15300
C2594       C  0.50201156  0.73797059  0.63356678    -0.30500
H2595       H  0.52367344  0.72429167  0.66679400     0.13700
H2596       H  0.49911834  0.75338875  0.61839462     0.14300
C2597       C  0.62253619  0.75181617  0.74921996    -0.15300
C2598       C  0.60390736  0.73293314  0.75082876    -0.30500
H2599       H  0.63736609  0.75416063  0.76484549     0.13700
H2600       H  0.58935087  0.73097760  0.73486344     0.14300
C2601       C  0.27629210  0.27599382  0.37530035    -0.15300
C2602       C  0.27728855  0.29888567  0.38868567    -0.30500
H2603       H  0.25857025  0.27057512  0.36410942     0.13700
H2604       H  0.29508386  0.30389546  0.39997266     0.14300
C2605       C  0.37411674  0.27191056  0.48259435    -0.15300
C2606       C  0.35721069  0.29258917  0.48440167    -0.30500
H2607       H  0.38689245  0.26633376  0.49929017     0.13700
H2608       H  0.34463726  0.29803004  0.46752086     0.14300
C2609       C  0.39025957  0.13021509  0.26578024    -0.15300
C2610       C  0.37776887  0.14040438  0.24384337    -0.30500
H2611       H  0.40463735  0.11398317  0.26378478     0.13700
H2612       H  0.36299718  0.15625260  0.24609404     0.14300
C2613       C  0.51174872  0.02789018  0.11259376    -0.15300
C2614       C  0.51680248  0.01009090  0.13190948    -0.30500
H2615       H  0.52668594  0.03156453  0.09724565     0.13700
H2616       H  0.50226348  0.00630825  0.14758972     0.14300
C2617       C  0.49515525  0.13151733  0.01468497    -0.15300
C2618       C  0.51272101  0.11243915  0.00858066    -0.30500
H2619       H  0.49244061  0.14884714  0.00169342     0.13700
H2620       H  0.51544856  0.09558221  0.02217543     0.14300
C2621       C  0.37302168  0.61405402  0.24962761    -0.15300
C2622       C  0.36368487  0.62503281  0.27278416    -0.30500
H2623       H  0.38706891  0.59743418  0.25058532     0.13700
H2624       H  0.35017619  0.64211439  0.27172641     0.14300
C2625       C  0.22518523  0.64174545  0.03572597    -0.15300
C2626       C  0.22795205  0.62608638  0.01427234    -0.30500
H2627       H  0.20674674  0.65298721  0.03873603     0.13700
H2628       H  0.24631921  0.61493315  0.01075518     0.14300
C2629       C  0.36672835  0.27049424  0.63388037    -0.15300
C2630       C  0.37754031  0.24836827  0.62227730    -0.30500
H2631       H  0.35476884  0.26853928  0.65184704     0.13700
H2632       H  0.39042574  0.25027638  0.60492045     0.14300
C2633       C  0.37154728  0.13965478  0.49312364    -0.15300
C2634       C  0.38182527  0.14922543  0.51642156    -0.30500
H2635       H  0.35655186  0.12408525  0.49394597     0.13700
H2636       H  0.39726093  0.16432473  0.51569543     0.14300
C2637       C  0.23432582  0.01506386  0.63226001    -0.15300
C2638       C  0.23591622  0.03949935  0.64237381    -0.30500
H2639       H  0.24849297  0.00854644  0.61714836     0.13700
H2640       H  0.22122895  0.04625607  0.65685411     0.14300
C2641       C  0.51436945  0.26757225  0.35732418    -0.15300
C2642       C  0.49331636  0.25275646  0.35058616    -0.30500
H2643       H  0.53301242  0.26464801  0.34655340     0.13700
H2644       H  0.49562959  0.23835793  0.33460179     0.14300
C2645       C  0.49203723  0.38060196  0.49562022    -0.15300
C2646       C  0.47111044  0.39760130  0.49538185    -0.30500
H2647       H  0.49496362  0.36640530  0.51190108     0.13700
H2648       H  0.46854274  0.41183752  0.47909715     0.14300
C2649       C  0.61672979  0.36985794  0.52559109    -0.15300
C2650       C  0.62723229  0.38049538  0.50274476    -0.30500
H2651       H  0.60278655  0.35340804  0.52452521     0.13700
H2652       H  0.64192431  0.39630950  0.50377861     0.14300
C2653       C  0.48894306  0.48017053  0.39063366    -0.15300
C2654       C  0.46546325  0.47851598  0.40324558    -0.30500
H2655       H  0.49374860  0.49759063  0.37849215     0.13700
H2656       H  0.46102898  0.46096963  0.41538843     0.14300
C2657       C  0.48489715  0.62098580  0.39489607    -0.15300
C2658       C  0.50807262  0.60979548  0.38597277    -0.30500
H2659       H  0.48545997  0.63815761  0.40795405     0.13700
H2660       H  0.50763731  0.59326374  0.37206617     0.14300
C2661       C  0.51175641  0.62163376  0.51761701    -0.15300
C2662       C  0.50948680  0.60591519  0.53906260    -0.30500
H2663       H  0.49558980  0.63500133  0.51165394     0.13700
H2664       H  0.52592334  0.59272582  0.54478753     0.14300
C2665       C  0.60334712  0.52970669  0.53061483    -0.15300
C2666       C  0.61486894  0.50570489  0.53192148    -0.30500
H2667       H  0.58989472  0.53624636  0.54635352     0.13700
H2668       H  0.62870076  0.49928638  0.51647911     0.14300
C2669       C  0.61370547  0.50881877  0.39148419    -0.15300
C2670       C  0.62492688  0.48651932  0.40257093    -0.30500
H2671       H  0.59945280  0.50669262  0.37531628     0.13700
H2672       H  0.63965713  0.48847442  0.41835394     0.14300
C2673       C  0.62038400  0.74036324  0.51233013    -0.15300
C2674       C  0.63696303  0.74357605  0.53282165    -0.30500
H2675       H  0.60254239  0.75272668  0.51020989     0.13700
H2676       H  0.65451540  0.73081050  0.53476099     0.14300
C2677       C  0.36840366  0.24401330  0.14328663    -0.15300
C2678       C  0.37892764  0.26663970  0.13223806    -0.30500
H2679       H  0.35387465  0.24538166  0.15934948     0.13700
H2680       H  0.39277656  0.26528212  0.11566686     0.14300
C2681       C  0.36880067  0.51649659  0.13976870    -0.15300
C2682       C  0.35879525  0.49334858  0.13002784    -0.30500
H2683       H  0.38578530  0.51599539  0.15318206     0.13700
H2684       H  0.34252210  0.49375046  0.11570624     0.14300
C2685       C  0.34854592  0.49104370  0.28652231    -0.15300
C2686       C  0.36515817  0.48998727  0.26568524    -0.30500
H2687       H  0.33282115  0.47633006  0.28868630     0.13700
H2688       H  0.38090555  0.50465198  0.26310887     0.14300
C2689       C  0.26400788  0.39346962  0.26498793    -0.15300
C2690       C  0.26437958  0.41012000  0.28570726    -0.30500
H2691       H  0.24635571  0.38175697  0.26065202     0.13700
H2692       H  0.28208858  0.42191864  0.28969208     0.14300
C2693       C  0.40552754  0.27773550  0.24887761    -0.15300
C2694       C  0.40797260  0.25709176  0.26593220    -0.30500
H2695       H  0.41967683  0.27910279  0.23247683     0.13700
H2696       H  0.42395762  0.24269029  0.26261982     0.14300
C2697       C  0.48289000  0.38052659  0.26515694    -0.15300
C2698       C  0.48679696  0.36356189  0.28539978    -0.30500
H2699       H  0.49722302  0.39619460  0.26083823     0.13700
H2700       H  0.47206136  0.34822494  0.28953438     0.14300
C2701       C  0.22578501  0.50927344  0.16275227    -0.15300
C2702       C  0.24344118  0.52928610  0.16447893    -0.30500
H2703       H  0.22735825  0.49313575  0.17733221     0.13700
H2704       H  0.25796435  0.52833702  0.18057871     0.14300
C2705       C  0.23641596  0.38474053  0.14579175    -0.15300
C2706       C  0.25886372  0.39471505  0.13431316    -0.30500
H2707       H  0.23805109  0.36874315  0.16052457     0.13700
H2708       H  0.25721452  0.41027879  0.11913238     0.14300
C2709       C  0.13195898  0.38537058  0.24765288    -0.15300
C2710       C  0.12116250  0.39452176  0.27081463    -0.30500
H2711       H  0.14839567  0.37109096  0.24814063     0.13700
H2712       H  0.10393642  0.40781860  0.27035595     0.14300
C2713       C  0.09932171  0.51191411  0.02743746    -0.15300
C2714       C  0.11223410  0.50985955  0.00423454    -0.30500
H2715       H  0.08520352  0.52823172  0.03059905     0.13700
H2716       H  0.12647105  0.49375821  0.00072036     0.14300
C2717       C  0.01304328  0.50031509  0.10657054    -0.15300
C2718       C  0.98930626  0.51172490  0.11165545    -0.30500
H2719       H  0.01435571  0.48608247  0.09033688     0.13700
H2720       H  0.97230378  0.50627186  0.09940202     0.14300
C2721       C  0.23096805  0.38397412  0.62418852    -0.15300
C2722       C  0.25403210  0.37289307  0.63395764    -0.30500
H2723       H  0.23178058  0.40149892  0.61135553     0.13700
H2724       H  0.25312236  0.35564091  0.64724097     0.14300
C2725       C  0.24986653  0.25068793  0.62120122    -0.15300
C2726       C  0.22904479  0.25309617  0.60461540    -0.30500
H2727       H  0.25226447  0.26427350  0.63784046     0.13700
H2728       H  0.22676009  0.23935630  0.58809224     0.14300
C2729       C  0.12354812  0.38174542  0.51888003    -0.15300
C2730       C  0.11401806  0.36997090  0.49634580    -0.30500
H2731       H  0.13861030  0.39719560  0.51748676     0.13700
H2732       H  0.09865163  0.35485138  0.49738573     0.14300
C2733       C  0.01538308  0.24376930  0.64554247    -0.15300
C2734       C  0.99355478  0.24507672  0.63020380    -0.30500
H2735       H  0.01809949  0.22711181  0.65942712     0.13700
H2736       H  0.99041750  0.26138747  0.61603459     0.14300
C2737       C  0.62870715  0.36415070  0.27501473    -0.15300
C2738       C  0.61747579  0.37457891  0.25243517    -0.30500
H2739       H  0.64482269  0.34961396  0.27360005     0.13700
H2740       H  0.60178331  0.38962495  0.25389834     0.14300
C2741       C  0.51898829  0.23926281  0.15959455    -0.15300
C2742       C  0.49794316  0.23870830  0.14329618    -0.30500
H2743       H  0.52291593  0.22262700  0.17316390     0.13700
H2744       H  0.49375379  0.25515025  0.12960199     0.14300
C2745       C  0.50939530  0.37863675  0.14717230    -0.15300
C2746       C  0.48684344  0.36828586  0.13614381    -0.30500
H2747       H  0.50802393  0.39552521  0.16057471     0.13700
H2748       H  0.48835271  0.35188866  0.12213049     0.14300
C2749       C  0.61414264  0.23862850  0.01242400    -0.15300
C2750       C  0.62861741  0.23664633  0.03484375    -0.30500
H2751       H  0.60109493  0.25567975  0.00856376     0.13700
H2752       H  0.64154486  0.21936248  0.03814255     0.14300
C2753       C  0.23557279  0.13105130  0.75071290    -0.15300
C2754       C  0.23482722  0.12018560  0.72655885    -0.30500
H2755       H  0.25122250  0.14494698  0.75612159     0.13700
H2756       H  0.21873904  0.10663899  0.72147592     0.14300
C2757       C  0.15693279  0.99888179  0.74905871    -0.15300
C2758       C  0.15819663  0.02099906  0.76400508    -0.30500
H2759       H  0.17112483  0.98283716  0.75318002     0.13700
H2760       H  0.17360610  0.02186325  0.77922591     0.14300
C2761       C  0.10951710  0.23440990  0.72820677    -0.15300
C2762       C  0.12063029  0.23559881  0.75229448    -0.30500
H2763       H  0.09774902  0.21710683  0.72267227     0.13700
H2764       H  0.13261352  0.25260121  0.75814193     0.14300
C2765       C  0.01866517  0.13118090  0.74522265    -0.15300
C2766       C  0.01638562  0.14780874  0.72443251    -0.30500
H2767       H  0.00318114  0.11660227  0.74947632     0.13700
H2768       H  0.03198022  0.16233996  0.72039614     0.14300
C2769       C  0.74785874  0.73884383  0.62339910    -0.15300
C2770       C  0.72581380  0.74387500  0.60961856    -0.30500
H2771       H  0.75390133  0.75224431  0.63923891     0.13700
H2772       H  0.71943385  0.72995631  0.59437058     0.14300
C2773       C  0.73596238  0.51798337  0.62680370    -0.15300
C2774       C  0.71552359  0.51830401  0.64404894    -0.30500
H2775       H  0.74038959  0.50031204  0.61504399     0.13700
H2776       H  0.71166946  0.53614355  0.65573179     0.14300
C2777       C  0.72569721  0.61094396  0.72563672    -0.15300
C2778       C  0.72424254  0.62678385  0.74690152    -0.30500
H2779       H  0.70979270  0.59686371  0.72173955     0.13700
H2780       H  0.73991823  0.64111925  0.75094406     0.14300
C2781       C  0.75132127  0.65540026  0.51658670    -0.15300
C2782       C  0.72862606  0.65735513  0.50229339    -0.30500
H2783       H  0.76711445  0.66968158  0.51222632     0.13700
H2784       H  0.72733140  0.67324903  0.48734612     0.14300
C2785       C  0.72854885  0.25234221  0.10829258    -0.15300
C2786       C  0.74530482  0.23135752  0.10657153    -0.30500
H2787       H  0.72995777  0.26799066  0.09317411     0.13700
H2788       H  0.75970714  0.23125839  0.09032323     0.14300
C2789       C  0.73486437  0.13156428  0.02763275    -0.15300
C2790       C  0.71664988  0.15048722  0.02316166    -0.30500
H2791       H  0.73882986  0.11625237  0.01281785     0.13700
H2792       H  0.71271380  0.16550914  0.03828074     0.14300
C2793       C  0.74781037  0.01800810  0.16581607    -0.15300
C2794       C  0.73335291  0.99664686  0.15924278    -0.30500
H2795       H  0.76134996  0.01635800  0.18270068     0.13700
H2796       H  0.73572298  0.97848932  0.17111575     0.14300
C2797       C  0.11639995  0.49759716  0.37510649    -0.15300
C2798       C  0.12762024  0.51869399  0.38792032    -0.30500
H2799       H  0.10431104  0.50080352  0.35735451     0.13700
H2800       H  0.13941140  0.51539627  0.40585146     0.14300
C2801       C  0.23598782  0.62684404  0.39080517    -0.15300
C2802       C  0.25853101  0.63728508  0.37955191    -0.30500
H2803       H  0.23755267  0.61097153  0.40567287     0.13700
H2804       H  0.25724549  0.65327716  0.36486770     0.14300
C2805       C  0.23732127  0.63824482  0.26534635    -0.15300
C2806       C  0.24142089  0.61943846  0.24705888    -0.30500
H2807       H  0.25098194  0.65489360  0.26745523     0.13700
H2808       H  0.22726841  0.60319061  0.24514475     0.14300
C2809       C  0.12869958  0.51678668  0.24385772    -0.15300
C2810       C  0.14474074  0.53782598  0.24615500    -0.30500
H2811       H  0.11494612  0.51139905  0.25977133     0.13700
H2812       H  0.15833018  0.54306189  0.23002996     0.14300
C2813       C  0.00080503  0.62702451  0.24699123    -0.15300
C2814       C  0.02267545  0.64211304  0.24624978    -0.30500
H2815       H  0.99592448  0.61488844  0.26438371     0.13700
H2816       H  0.02697424  0.65422755  0.22863508     0.14300
C2817       C  0.10206173  0.74615716  0.26604394    -0.15300
C2818       C  0.12260174  0.76209861  0.26106730    -0.30500
H2819       H  0.08600246  0.74510516  0.25146954     0.13700
H2820       H  0.13881660  0.76390814  0.27535875     0.14300
C2821       C  0.13720165  0.72083724  0.04644496    -0.15300
C2822       C  0.12510388  0.72257357  0.02254451    -0.30500
H2823       H  0.14865897  0.70307061  0.05180399     0.13700
H2824       H  0.11370560  0.74032254  0.01706246     0.14300
C2825       C  0.23861714  0.76111773  0.11425461    -0.15300
C2826       C  0.25777947  0.74246517  0.11315489    -0.30500
H2827       H  0.23952202  0.77796058  0.10045720     0.13700
H2828       H  0.27363653  0.74471730  0.09849474     0.14300
C2829       C  0.01026608  0.72584388  0.14445546    -0.15300
C2830       C  0.03128194  0.72726287  0.16077529    -0.30500
H2831       H  0.00559617  0.74210680  0.13068957     0.13700
H2832       H  0.03590304  0.71082584  0.17433827     0.14300
C2833       C  0.62027541  0.23590062  0.38383916    -0.15300
C2834       C  0.63029788  0.25942707  0.37456522    -0.30500
H2835       H  0.60511135  0.23617743  0.39930231     0.13700
H2836       H  0.64596363  0.25932448  0.35952970     0.14300
C2837       C  0.51808946  0.13952777  0.37838037    -0.15300
C2838       C  0.49438901  0.13087855  0.36863197    -0.30500
H2839       H  0.51838928  0.15462511  0.39380714     0.13700
H2840       H  0.49398097  0.11499842  0.35397663     0.14300
C2841       C  0.62293355  0.24501217  0.25062309    -0.15300
C2842       C  0.61089681  0.22148476  0.25236946    -0.30500
H2843       H  0.63846260  0.25034869  0.26473841     0.13700
H2844       H  0.59563541  0.21600367  0.23804806     0.14300
C2845       C  0.74737000  0.09773849  0.26728453    -0.15300
C2846       C  0.76146779  0.09841566  0.24451349    -0.30500
H2847       H  0.75343929  0.08372976  0.28287251     0.13700
H2848       H  0.77855216  0.08498253  0.24281961     0.14300
C2849       C  0.51322112  0.11906322  0.23300527    -0.15300
C2850       C  0.53812283  0.12828808  0.23140050    -0.30500
H2851       H  0.50680340  0.10787674  0.25053324     0.13700
H2852       H  0.54420751  0.13912722  0.21351365     0.14300
C2853       C  0.64289301  0.00787967  0.26064214    -0.15300
C2854       C  0.65814066  0.00500760  0.23911969    -0.30500
H2855       H  0.62566999  0.99506325  0.26367852     0.13700
H2856       H  0.67515300  0.01804009  0.23607355     0.14300
C2857       C  0.13370150  0.26905717  0.38671331    -0.15300
C2858       C  0.14513139  0.24686643  0.37583597    -0.30500
H2859       H  0.11719281  0.26674313  0.40059871     0.13700
H2860       H  0.16110496  0.24890055  0.36131162     0.14300
C2861       C  0.24575271  0.14569584  0.37571089    -0.15300
C2862       C  0.26898105  0.13667950  0.38689057    -0.30500
H2863       H  0.24626470  0.16093842  0.36015904     0.13700
H2864       H  0.26837355  0.12103604  0.40197404     0.14300
C2865       C  0.14708421  0.24164173  0.50875437    -0.15300
C2866       C  0.12685569  0.25837341  0.51368365    -0.30500
H2867       H  0.16331069  0.23969865  0.52307157     0.13700
H2868       H  0.11028622  0.26047429  0.49982104     0.14300
C2869       C  0.25170947  0.16132603  0.51841508    -0.15300
C2870       C  0.24736777  0.14319257  0.49973857    -0.30500
H2871       H  0.23739742  0.17754122  0.52120608     0.13700
H2872       H  0.26134532  0.12675243  0.49671919     0.14300
C2873       C  0.03043099  0.12649884  0.51828195    -0.15300
C2874       C  0.00585359  0.13719946  0.51580595    -0.30500
H2875       H  0.03545767  0.11493243  0.53607893     0.13700
H2876       H  0.00031502  0.14887624  0.49826248     0.14300
C2877       C  0.12801862  0.02870629  0.51803046    -0.15300
C2878       C  0.11239492  0.02899656  0.53980470    -0.30500
H2879       H  0.14079387  0.01158807  0.51385950     0.13700
H2880       H  0.09966282  0.04621071  0.54372704     0.14300
C2881       C  0.87514415  0.73838363  0.62836687    -0.15300
C2882       C  0.86446558  0.76127475  0.63858806    -0.30500
H2883       H  0.89221584  0.73955245  0.61499602     0.13700
H2884       H  0.84763187  0.76013775  0.65222128     0.14300
C2885       C  0.76176069  0.86721472  0.63287299    -0.15300
C2886       C  0.73975095  0.87836374  0.62101900    -0.30500
H2887       H  0.75943274  0.85293038  0.64917767     0.13700
H2888       H  0.74192627  0.89337093  0.60542061     0.14300
C2889       C  0.98908249  0.89213457  0.64566617    -0.15300
C2890       C  0.01160622  0.88196761  0.63429944    -0.30500
H2891       H  0.99039627  0.90744256  0.66087871     0.13700
H2892       H  0.00994189  0.86653712  0.61926504     0.14300
C2893       C  0.88633487  0.98906510  0.63436138    -0.15300
C2894       C  0.87667081  0.01234682  0.62380960    -0.30500
H2895       H  0.90170039  0.98968485  0.64967958     0.13700
H2896       H  0.86043939  0.01165211  0.60931266     0.14300
C2897       C  0.87633222  0.12129576  0.24402574    -0.15300
C2898       C  0.86675394  0.13109084  0.26748475    -0.30500
H2899       H  0.89308476  0.10745385  0.24408765     0.13700
H2900       H  0.85027705  0.14534337  0.26744781     0.14300
C2901       C  0.76684337  0.12203856  0.37501586    -0.15300
C2902       C  0.74521983  0.11030790  0.38666465    -0.30500
H2903       H  0.76392562  0.13844988  0.36096563     0.13700
H2904       H  0.74791337  0.09428717  0.40120698     0.14300
C2905       C  0.99507636  0.13123676  0.39050818    -0.15300
C2906       C  0.01835449  0.12204931  0.37955751    -0.30500
H2907       H  0.99563381  0.14610601  0.40618777     0.13700
H2908       H  0.01765386  0.10759913  0.36355317     0.14300
C2909       C  0.87341777  0.10907108  0.51569045    -0.15300
C2910       C  0.88485460  0.12141555  0.49424164    -0.30500
H2911       H  0.86082358  0.09169991  0.51304358     0.13700
H2912       H  0.89707689  0.13901248  0.49710082     0.14300
C2913       C  0.89918613  0.98056684  0.47718499    -0.15300
C2914       C  0.88462147  0.97953932  0.49952599    -0.30500
H2915       H  0.91317577  0.96460024  0.47254383     0.13700
H2916       H  0.87028316  0.99525556  0.50405487     0.14300
C2917       C  0.12877357  0.87021209  0.27420911    -0.15300
C2918       C  0.11900540  0.88031223  0.25073340    -0.30500
H2919       H  0.14406649  0.85476990  0.27409635     0.13700
H2920       H  0.10368052  0.89579485  0.25096021     0.14300
C2921       C  0.11777340  0.76902595  0.38628166    -0.15300
C2922       C  0.10576163  0.74615933  0.39492037    -0.30500
H2923       H  0.13641228  0.76800336  0.37526121     0.13700
H2924       H  0.08783767  0.74693200  0.40710718     0.14300
C2925       C  0.13182907  0.99547371  0.39613465    -0.15300
C2926       C  0.12226098  0.01784746  0.38342874    -0.30500
H2927       H  0.14628920  0.99691754  0.41214893     0.13700
H2928       H  0.10808442  0.01605948  0.36715838     0.14300
C2929       C  0.01336997  0.00185563  0.40554261    -0.15300
C2930       C  0.99201713  0.01799648  0.40474369    -0.30500
H2931       H  0.02949389  0.00647369  0.41921016     0.13700
H2932       H  0.99150797  0.03514736  0.41792455     0.14300
C2933       C  0.11764860  0.89201138  0.50042374    -0.15300
C2934       C  0.10724374  0.88326802  0.52408006    -0.30500
H2935       H  0.13395718  0.90619516  0.50058338     0.13700
H2936       H  0.09181414  0.86813312  0.52411385     0.14300
C2937       C  0.98626019  0.90410189  0.48748084    -0.15300
C2938       C  0.99058525  0.88857591  0.50922412    -0.30500
H2939       H  0.96828019  0.91636910  0.48601987     0.13700
H2940       H  0.00858697  0.87645147  0.51121966     0.14300
C2941       C  0.76184816  0.86549386  0.49088852    -0.15300
C2942       C  0.78432747  0.85141563  0.49393740    -0.30500
H2943       H  0.75690924  0.88135611  0.50480971     0.13700
H2944       H  0.78937631  0.83596408  0.47964943     0.14300
C2945       C  0.62488881  0.86610926  0.49641684    -0.15300
C2946       C  0.63502703  0.87521583  0.51989016    -0.30500
H2947       H  0.60815198  0.85244207  0.49684138     0.13700
H2948       H  0.65112486  0.88963393  0.51945011     0.14300
C2949       C  0.61370438  0.76015559  0.39137961    -0.15300
C2950       C  0.62494445  0.73769101  0.38040765    -0.30500
H2951       H  0.59785726  0.75872271  0.40605823     0.13700
H2952       H  0.64046356  0.73944733  0.36533045     0.14300
C2953       C  0.62992174  0.98670590  0.37602479    -0.15300
C2954       C  0.64024762  0.00963450  0.38603402    -0.30500
H2955       H  0.61256262  0.98764652  0.36309174     0.13700
H2956       H  0.65690847  0.00879218  0.39991412     0.14300
C2957       C  0.78018489  0.95783379  0.36664489    -0.15300
C2958       C  0.77917280  0.98258104  0.37644928    -0.30500
H2959       H  0.79795593  0.95127686  0.35593662     0.13700
H2960       H  0.76157727  0.98916303  0.38736539     0.14300
C2961       C  0.62820668  0.88624906  0.26913949    -0.15300
C2962       C  0.63875156  0.87576146  0.24638547    -0.30500
H2963       H  0.61420535  0.90285482  0.26811198     0.13700
H2964       H  0.65229845  0.85872163  0.24742182     0.14300
C2965       C  0.75793127  0.62106535  0.39525522    -0.15300
C2966       C  0.73485916  0.63100463  0.38441893    -0.30500
H2967       H  0.75712032  0.60616678  0.41112366     0.13700
H2968       H  0.73577226  0.64514321  0.36790938     0.14300
C2969       C  0.76479608  0.74884009  0.40863267    -0.15300
C2970       C  0.74270537  0.74937592  0.39382524    -0.30500
H2971       H  0.76760279  0.76395007  0.42386983     0.13700
H2972       H  0.73951474  0.73460298  0.37835127     0.14300
C2973       C  0.87032946  0.76455250  0.48533243    -0.15300
C2974       C  0.88583452  0.76348277  0.50709055    -0.30500
H2975       H  0.85779820  0.78208016  0.48168291     0.13700
H2976       H  0.89850289  0.74624982  0.51133616     0.14300
C2977       C  0.86665169  0.62567006  0.49486765    -0.15300
C2978       C  0.87750566  0.63772255  0.51650202    -0.30500
H2979       H  0.85168197  0.61024066  0.49753077     0.13700
H2980       H  0.89291357  0.65274208  0.51407907     0.14300
C2981       C  0.98617241  0.62589659  0.36884684    -0.15300
C2982       C  0.00703985  0.63730829  0.38174560    -0.30500
H2983       H  0.98967791  0.61084341  0.35370265     0.13700
H2984       H  0.00331890  0.65183419  0.39736589     0.14300
C2985       C  0.97615986  0.76742963  0.37862106    -0.15300
C2986       C  0.97326815  0.79209389  0.36826809    -0.30500
H2987       H  0.99405176  0.76209888  0.38977689     0.13700
H2988       H  0.95533302  0.79712046  0.35702152     0.14300
C2989       C  0.86791196  0.63626274  0.24431048    -0.15300
C2990       C  0.87744633  0.62456568  0.26708384    -0.30500
H2991       H  0.85306801  0.65212656  0.24532787     0.13700
H2992       H  0.89203600  0.60842489  0.26584416     0.14300
C2993       C  0.86302590  0.98923825  0.12817280    -0.15300
C2994       C  0.87258237  0.01186519  0.13971041    -0.30500
H2995       H  0.84668240  0.99056032  0.11400535     0.13700
H2996       H  0.88953375  0.01062710  0.15319629     0.14300
C2997       C  0.01381515  0.87074880  0.14257360    -0.15300
C2998       C  0.99225733  0.85948684  0.13068864    -0.30500
H2999       H  0.01107315  0.88810786  0.15521820     0.13700
H3000       H  0.99488778  0.84254913  0.11747334     0.14300
C3001       C  0.86429154  0.98110686  0.25961602    -0.15300
C3002       C  0.88135481  0.00106921  0.26319097    -0.30500
H3003       H  0.84850918  0.97766743  0.27413118     0.13700
H3004       H  0.89748713  0.00470001  0.24909568     0.14300
C3005       C  0.98371273  0.86897090  0.26459929    -0.15300
C3006       C  0.00138011  0.88838478  0.26766348    -0.30500
H3007       H  0.98063586  0.85460725  0.28073101     0.13700
H3008       H  0.00489764  0.90309707  0.25199980     0.14300
C3009       C  0.89082911  0.77072928  0.26491607    -0.15300
C3010       C  0.87088804  0.75386733  0.26964397    -0.30500
H3011       H  0.90732683  0.77181471  0.27896318     0.13700
H3012       H  0.85406400  0.75249590  0.25601585     0.14300
C3013       C  0.88726293  0.76127859  0.12600090    -0.15300
C3014       C  0.87659266  0.73825527  0.13591752    -0.30500
H3015       H  0.90283608  0.76042283  0.11090634     0.13700
H3016       H  0.86028135  0.73922804  0.15016442     0.14300
C3017       C  0.77807999  0.87784142  0.27234021    -0.15300
C3018       C  0.75849366  0.85997983  0.27306117    -0.30500
H3019       H  0.78119127  0.89078027  0.28940212     0.13700
H3020       H  0.75456808  0.84703882  0.25618997     0.14300
C3021       C  0.76436833  0.88925755  0.12898792    -0.15300
C3022       C  0.74144525  0.87966100  0.13986553    -0.30500
H3023       H  0.76347538  0.90430135  0.11323725     0.13700
H3024       H  0.74242661  0.86411378  0.15503498     0.14300
C3025       C  0.75940166  0.63225040  0.87142677    -0.15300
C3026       C  0.73714956  0.62202779  0.88327854    -0.30500
H3027       H  0.75762103  0.64665945  0.85521217     0.13700
H3028       H  0.73914328  0.60801757  0.89987004     0.14300
C3029       C  0.86208173  0.62369841  0.76659346    -0.15300
C3030       C  0.87133291  0.61259385  0.74351280    -0.30500
H3031       H  0.84717399  0.63954770  0.76576329     0.13700
H3032       H  0.88713306  0.59762320  0.74424723     0.14300
C3033       C  0.98656369  0.62330485  0.88653584    -0.15300
C3034       C  0.00983850  0.61337818  0.87641388    -0.30500
H3035       H  0.98705636  0.63994506  0.90031265     0.13700
H3036       H  0.00941008  0.59746704  0.86181565     0.14300
C3037       C  0.88758076  0.62784660  0.99445895    -0.15300
C3038       C  0.87617353  0.61775025  0.01710589    -0.30500
H3039       H  0.90434603  0.64137815  0.99577995     0.13700
H3040       H  0.85890981  0.60482159  0.01563088     0.14300
C3041       C  0.85995551  0.26182017  0.13021704    -0.15300
C3042       C  0.86944659  0.23922847  0.11850657    -0.30500
H3043       H  0.84452669  0.26018665  0.14539882     0.13700
H3044       H  0.88517028  0.24066082  0.10361324     0.14300
C3045       C  0.75908561  0.36596430  0.13819710    -0.15300
C3046       C  0.73606995  0.37641156  0.12776614    -0.30500
H3047       H  0.75850547  0.35103858  0.15399110     0.13700
H3048       H  0.73662733  0.39222100  0.11282236     0.14300
C3049       C  0.86599853  0.51173990  0.12658371    -0.15300
C3050       C  0.87675614  0.48929745  0.13791281    -0.30500
H3051       H  0.85008321  0.51045239  0.11201531     0.13700
H3052       H  0.89237466  0.49081921  0.15286254     0.14300
C3053       C  0.88720705  0.49664161  0.98987492    -0.15300
C3054       C  0.87094154  0.49159409  0.01022555    -0.30500
H3055       H  0.90397847  0.48329645  0.98601166     0.13700
H3056       H  0.85366409  0.50436362  0.01394377     0.14300
C3057       C  0.98604228  0.39104366  0.13706636    -0.15300
C3058       C  0.00925121  0.38218499  0.12568533    -0.30500
H3059       H  0.98669364  0.40601903  0.15259258     0.13700
H3060       H  0.00864490  0.36660425  0.11071807     0.14300
C3061       C  0.12295432  0.35711116  0.76938132    -0.15300
C3062       C  0.11020225  0.36829910  0.74793420    -0.30500
H3063       H  0.13931652  0.34308141  0.76629438     0.13700
H3064       H  0.09431239  0.38282052  0.75118696     0.14300
C3065       C  0.11402565  0.23571456  0.88929219    -0.15300
C3066       C  0.12572135  0.25805156  0.87891127    -0.30500
H3067       H  0.09965724  0.23727772  0.90543691     0.13700
H3068       H  0.14038480  0.25622056  0.86301209     0.14300
C3069       C  0.12580796  0.48744357  0.88476729    -0.15300
C3070       C  0.11353045  0.50912631  0.87332628    -0.30500
H3071       H  0.14151379  0.49043830  0.89936333     0.13700
H3072       H  0.09812503  0.50638545  0.85835574     0.14300
C3073       C  0.99153859  0.48086468  0.88240971    -0.15300
C3074       C  0.96872365  0.48076192  0.89610292    -0.30500
H3075       H  0.99574171  0.49661139  0.86794046     0.13700
H3076       H  0.96476881  0.46468446  0.91027802     0.14300
C3077       C  0.13288777  0.39142354  0.99792012    -0.15300
C3078       C  0.12268238  0.38130506  0.02126842    -0.30500
H3079       H  0.14662915  0.40811751  0.99831310     0.13700
H3080       H  0.10973048  0.36406807  0.02069894     0.14300
C3081       C  0.00075694  0.38361066  0.00006281    -0.15300
C3082       C  0.97879357  0.39871379  0.00208002    -0.30500
H3083       H  0.00541521  0.36852988  0.01512714     0.13700
H3084       H  0.97437309  0.41361006  0.98677027     0.14300
C3085       C  0.63000741  0.37435146  0.75357426    -0.15300
C3086       C  0.61875544  0.38612889  0.77530554    -0.30500
H3087       H  0.64692592  0.36083688  0.75610713     0.13700
H3088       H  0.60149905  0.39920537  0.77277427     0.14300
C3089       C  0.74002355  0.49717450  0.89135361    -0.15300
C3090       C  0.75817364  0.50233323  0.87261880    -0.30500
H3091       H  0.73821512  0.50969687  0.90891627     0.13700
H3092       H  0.75983124  0.48918393  0.85549188     0.14300
C3093       C  0.61615121  0.49298660  0.88249888    -0.15300
C3094       C  0.62733075  0.51492779  0.89388508    -0.30500
H3095       H  0.60291132  0.49511665  0.86543886     0.13700
H3096       H  0.64007781  0.51311831  0.91127530     0.14300
C3097       C  0.61512651  0.36355360  0.00272058    -0.15300
C3098       C  0.62468199  0.37496290  0.02535699    -0.30500
H3099       H  0.60136938  0.34689049  0.00388119     0.13700
H3100       H  0.63768625  0.39213197  0.02407941     0.14300
C3101       C  0.74788423  0.37442281  0.00230061    -0.15300
C3102       C  0.76898513  0.35810086  0.00354906    -0.30500
H3103       H  0.74465145  0.38979696  0.01720872     0.13700
H3104       H  0.77186867  0.34292235  0.98836327     0.14300
C3105       C  0.62276766  0.26505874  0.89240530    -0.15300
C3106       C  0.63435511  0.24358593  0.88061666    -0.30500
H3107       H  0.60582777  0.26222848  0.90568179     0.13700
H3108       H  0.65103641  0.24628760  0.86697746     0.14300
C3109       C  0.98667615  0.12104073  0.86945999    -0.15300
C3110       C  0.00936919  0.13070852  0.88051865    -0.30500
H3111       H  0.98786113  0.10702938  0.85307523     0.13700
H3112       H  0.00810751  0.14425316  0.89733439     0.14300
C3113       C  0.85540524  0.11723344  0.99508455    -0.15300
C3114       C  0.86556357  0.12759233  0.01805525    -0.30500
H3115       H  0.83880217  0.10341732  0.99602589     0.13700
H3116       H  0.88245561  0.14104739  0.01684940     0.14300
C3117       C  0.87517170  0.25080627  0.99950416    -0.15300
C3118       C  0.86396525  0.27513199  0.99796875    -0.30500
H3119       H  0.88882611  0.24555504  0.01560695     0.13700
H3120       H  0.85064633  0.28007274  0.98148030     0.14300
C3121       C  0.97783160  0.25846365  0.87923770    -0.15300
C3122       C  0.99772145  0.26286849  0.89619571    -0.30500
H3123       H  0.97397545  0.27271541  0.86316062     0.13700
H3124       H  0.00162816  0.24919224  0.91273825     0.14300
C3125       C  0.76566809  0.25926816  0.89013211    -0.15300
C3126       C  0.76454309  0.28230080  0.90347887    -0.30500
H3127       H  0.75025147  0.25443213  0.87573432     0.13700
H3128       H  0.78024620  0.28727926  0.91748112     0.14300
C3129       C  0.75971768  0.12524747  0.88753946    -0.15300
C3130       C  0.73734842  0.13698622  0.87718805    -0.30500
H3131       H  0.75822847  0.11036427  0.90333803     0.13700
H3132       H  0.73873761  0.15081279  0.86045507     0.14300
C3133       C  0.88532182  0.12794999  0.76735556    -0.15300
C3134       C  0.87465794  0.13765719  0.74409922    -0.30500
H3135       H  0.90054721  0.11243016  0.76658830     0.13700
H3136       H  0.85849151  0.15223027  0.74485121     0.14300
C3137       C  0.85871895  0.48877674  0.62570809    -0.15300
C3138       C  0.86998901  0.51122880  0.63568537    -0.30500
H3139       H  0.84358654  0.49024668  0.61022748     0.13700
H3140       H  0.88558221  0.50966785  0.65061440     0.14300
C3141       C  0.76101976  0.38250971  0.76606563    -0.15300
C3142       C  0.76251767  0.39557853  0.78925544    -0.30500
H3143       H  0.74323639  0.37140384  0.76084474     0.13700
H3144       H  0.78050286  0.40659111  0.79416244     0.14300
C3145       C  0.75376173  0.38192181  0.63180456    -0.15300
C3146       C  0.73250534  0.37103180  0.64486372    -0.30500
H3147       H  0.75084191  0.39698153  0.61637291     0.13700
H3148       H  0.73544815  0.35514600  0.65952959     0.14300
C3149       C  0.86465945  0.48615946  0.76060058    -0.15300
C3150       C  0.84837059  0.48911872  0.78134609    -0.30500
H3151       H  0.88081819  0.50013454  0.75698057     0.13700
H3152       H  0.83231981  0.47492068  0.78462366     0.14300
C3153       C  0.98163126  0.36751957  0.62922478    -0.15300
C3154       C  0.00409063  0.37771145  0.64046633    -0.30500
H3155       H  0.98288102  0.35248537  0.61377819     0.13700
H3156       H  0.00286673  0.39347690  0.65513954     0.14300
C3157       C  0.97742243  0.37460909  0.76637329    -0.15300
C3158       C  0.97886329  0.36103452  0.78955486    -0.30500
H3159       H  0.99384087  0.38724099  0.75995702     0.13700
H3160       H  0.96222911  0.34868968  0.79584920     0.14300
C3161       C  0.87503298  0.26891763  0.76687266    -0.15300
C3162       C  0.88736156  0.27071629  0.79032903    -0.30500
H3163       H  0.86368572  0.25122946  0.76175387     0.13700
H3164       H  0.89851404  0.28859034  0.79525325     0.14300
C3165       C  0.87605155  0.26141262  0.62939454    -0.15300
C3166       C  0.86520711  0.23944353  0.64123839    -0.30500
H3167       H  0.88959252  0.25916524  0.61256731     0.13700
H3168       H  0.85145939  0.24155824  0.65790292     0.14300
C3169       C  0.63153136  0.76402147  0.87964371    -0.15300
C3170       C  0.62009990  0.74191362  0.89076106    -0.30500
H3171       H  0.64659174  0.76213040  0.86416768     0.13700
H3172       H  0.60605998  0.74370321  0.90718980     0.14300
C3173       C  0.63242170  0.86801301  0.76972846    -0.15300
C3174       C  0.62057203  0.87975996  0.74810057    -0.30500
H3175       H  0.64786307  0.85290039  0.76698950     0.13700
H3176       H  0.60537737  0.89510056  0.75088809     0.14300
C3177       C  0.63470064  0.99267861  0.89268728    -0.15300
C3178       C  0.62356234  0.01487212  0.88108537    -0.30500
H3179       H  0.64968132  0.99473153  0.90816184     0.13700
H3180       H  0.60907658  0.01265207  0.86512872     0.14300
C3181       C  0.63195581  0.88858018  0.99785297    -0.15300
C3182       C  0.62052762  0.87821155  0.02029568    -0.30500
H3183       H  0.64661989  0.90439837  0.99930043     0.13700
H3184       H  0.60661858  0.86175367  0.01899572     0.14300
C3185       C  0.36721389  0.76583666  0.13859331    -0.15300
C3186       C  0.37691817  0.74315217  0.12705566    -0.30500
H3187       H  0.35196582  0.76427023  0.15397252     0.13700
H3188       H  0.39231522  0.74465124  0.11182449     0.14300
C3189       C  0.24046560  0.87814678  0.12676956    -0.15300
C3190       C  0.26366317  0.86951974  0.13844968    -0.30500
H3191       H  0.24068705  0.89261883  0.11050903     0.13700
H3192       H  0.26336102  0.85580097  0.15529604     0.14300
C3193       C  0.49111870  0.89342650  0.13649021    -0.15300
C3194       C  0.51408490  0.88295017  0.12609648    -0.30500
H3195       H  0.49219638  0.90840210  0.15199461     0.13700
H3196       H  0.51294657  0.86754688  0.11097618     0.14300
C3197       C  0.50032634  0.88292800  0.99423486    -0.15300
C3198       C  0.47784309  0.89686419  0.99730936    -0.30500
H3199       H  0.50600038  0.86768369  0.00879266     0.13700
H3200       H  0.47211653  0.91166267  0.98235034     0.14300
C3201       C  0.38089069  0.99430161  0.13247524    -0.15300
C3202       C  0.36859407  0.01618654  0.12161298    -0.30500
H3203       H  0.39684716  0.99664443  0.14694052     0.13700
H3204       H  0.35203300  0.01402218  0.10787554     0.14300
C3205       C  0.25886393  0.12985064  0.87411682    -0.15300
C3206       C  0.23782652  0.11667891  0.88544896    -0.30500
H3207       H  0.25536167  0.14563719  0.85948304     0.13700
H3208       H  0.24131753  0.10113084  0.90033561     0.14300
C3209       C  0.36553430  0.13505443  0.76691880    -0.15300
C3210       C  0.37559848  0.12486581  0.74377761    -0.30500
H3211       H  0.34984078  0.15011895  0.76641301     0.13700
H3212       H  0.39196810  0.11054780  0.74430037     0.14300
C3213       C  0.48853433  0.12531798  0.88492276    -0.15300
C3214       C  0.51076136  0.11453109  0.87330844    -0.30500
H3215       H  0.49041829  0.14137189  0.89926016     0.13700
H3216       H  0.50914602  0.09895888  0.85846086     0.14300
C3217       C  0.49677764  0.98888325  0.87966307    -0.15300
C3218       C  0.47213479  0.98649586  0.88948328    -0.30500
H3219       H  0.50189881  0.00533809  0.86636351     0.13700
H3220       H  0.46735994  0.96963191  0.90244147     0.14300
C3221       C  0.38097049  0.12873918  0.99340972    -0.15300
C3222       C  0.36981677  0.11890618  0.01626359    -0.30500
H3223       H  0.39470384  0.14536284  0.99439357     0.13700
H3224       H  0.35554992  0.10269240  0.01528710     0.14300
C3225       C  0.38778792  0.98596277  0.97567765    -0.15300
C3226       C  0.37542633  0.98519088  0.99921112    -0.30500
H3227       H  0.40123095  0.96991006  0.96980007     0.13700
H3228       H  0.36158630  0.00096853  0.00495212     0.14300
C3229       C  0.37375845  0.63813042  0.77298835    -0.15300
C3230       C  0.36412034  0.64976075  0.75024622    -0.30500
H3231       H  0.38706408  0.62097540  0.77184360     0.13700
H3232       H  0.34970401  0.66606390  0.75110242     0.14300
C3233       C  0.46694939  0.77520249  0.88185807    -0.15300
C3234       C  0.49270580  0.77429297  0.88863604    -0.30500
H3235       H  0.45900298  0.79267803  0.87149398     0.13700
H3236       H  0.50060907  0.75726027  0.89975090     0.14300
C3237       C  0.48682761  0.63042879  0.87608397    -0.15300
C3238       C  0.50866445  0.64098345  0.88816149    -0.30500
H3239       H  0.48926013  0.61437876  0.86178065     0.13700
H3240       H  0.50627341  0.65685893  0.90266838     0.14300
C3241       C  0.36012586  0.62290644  0.99921642    -0.15300
C3242       C  0.37009853  0.63392659  0.02188283    -0.30500
H3243       H  0.34333385  0.60932882  0.00032608     0.13700
H3244       H  0.38733170  0.64696022  0.02064086     0.14300
C3245       C  0.37201822  0.74797186  0.01059334    -0.15300
C3246       C  0.35758225  0.77030444  0.01281222    -0.30500
H3247       H  0.38912106  0.74425807  0.02351088     0.13700
H3248       H  0.34092809  0.77389539  0.99927373     0.14300
C3249       C  0.25948738  0.62146570  0.89062862    -0.15300
C3250       C  0.23729016  0.63187756  0.87859884    -0.30500
H3251       H  0.25783071  0.60503855  0.90485226     0.13700
H3252       H  0.23908582  0.64754592  0.86363801     0.14300
C3253       C  0.11428260  0.98654165  0.87473745    -0.15300
C3254       C  0.12358834  0.00950030  0.88566313    -0.30500
H3255       H  0.10233363  0.98699421  0.85665867     0.13700
H3256       H  0.13462197  0.00901420  0.90425438     0.14300
C3257       C  0.12002834  0.85585595  0.00166940    -0.15300
C3258       C  0.12964079  0.86685333  0.02450638    -0.30500
H3259       H  0.10757609  0.83817500  0.00257074     0.13700
H3260       H  0.14130799  0.88495553  0.02331451     0.14300
C3261       C  0.24911802  0.87835069  0.00273135    -0.15300
C3262       C  0.26902248  0.86060690  0.00514322    -0.30500
H3263       H  0.24677664  0.89467311  0.01674569     0.13700
H3264       H  0.27083154  0.84447466  0.99079757     0.14300
C3265       C  0.24325587  0.99356691  0.88750803    -0.15300
C3266       C  0.26171639  0.99733732  0.86854299    -0.30500
H3267       H  0.24101479  0.00747080  0.90393952     0.13700
H3268       H  0.26342561  0.98304766  0.85237476     0.14300
C3269       C  0.25755129  0.78001837  0.91820705    -0.15300
C3270       C  0.25781466  0.75570010  0.90751248    -0.30500
H3271       H  0.27300252  0.78590989  0.93211941     0.13700
H3272       H  0.24250918  0.75006584  0.89329287     0.14300
C3273       C  0.12461185  0.76013321  0.89386662    -0.15300
C3274       C  0.13605930  0.73805987  0.88286187    -0.30500
H3275       H  0.10798183  0.75801902  0.90759714     0.13700
H3276       H  0.15197146  0.74011277  0.86824531     0.14300
C3277       C  0.12689893  0.88449745  0.77304947    -0.15300
C3278       C  0.13953644  0.87447822  0.75107626    -0.30500
H3279       H  0.11104504  0.89923382  0.77047517     0.13700
H3280       H  0.15490764  0.85917161  0.75330758     0.14300
C3281       C  0.38425768  0.76751863  0.62919270    -0.15300
C3282       C  0.37201878  0.74520287  0.63875570    -0.30500
H3283       H  0.39962293  0.76590253  0.61394452     0.13700
H3284       H  0.35613949  0.74708660  0.65337053     0.14300
C3285       C  0.48841300  0.87153108  0.63589840    -0.15300
C3286       C  0.51125169  0.88158166  0.64661681    -0.30500
H3287       H  0.48977238  0.85627450  0.62068984     0.13700
H3288       H  0.51012186  0.89756557  0.66112648     0.14300
C3289       C  0.36738753  0.77602145  0.77382452    -0.15300
C3290       C  0.37843308  0.77739481  0.79810119    -0.30500
H3291       H  0.35368134  0.76003194  0.76896180     0.13700
H3292       H  0.39214791  0.79336922  0.80277166     0.14300
C3293       C  0.47067256  0.87300222  0.77721446    -0.15300
C3294       C  0.49521226  0.88323080  0.77612980    -0.30500
H3295       H  0.46452515  0.86184892  0.79489056     0.13700
H3296       H  0.50171769  0.89445156  0.75866871     0.14300
C3297       C  0.36112966  0.99632306  0.62918179    -0.15300
C3298       C  0.37156268  0.01879232  0.64027478    -0.30500
H3299       H  0.34658479  0.99833272  0.61319290     0.13700
H3300       H  0.38647773  0.01658244  0.65588629     0.14300
C3301       C  0.34587201  0.98647507  0.75983309    -0.15300
C3302       C  0.36146658  0.00766190  0.76295149    -0.30500
H3303       H  0.32999802  0.98244004  0.77408904     0.13700
H3304       H  0.37753871  0.01173978  0.74892716     0.14300
C3305       C  0.26100762  0.87969341  0.76543978    -0.15300
C3306       C  0.25986977  0.89415919  0.78788844    -0.30500
H3307       H  0.24618841  0.86449888  0.76138111     0.13700
H3308       H  0.27472389  0.90935714  0.79169987     0.14300
C3309       C  0.23792364  0.87892591  0.63599363    -0.15300
C3310       C  0.26083885  0.88980896  0.62624315    -0.30500
H3311       H  0.23880698  0.86219481  0.64987600     0.13700
H3312       H  0.26006167  0.90597164  0.61167151     0.14300
loop_ 
_geom_bond_atom_site_label_1 
_geom_bond_atom_site_label_2 
_geom_bond_distance 
_geom_bond_site_symmetry_2 
_ccdc_geom_bond_type 
C1           N19   1.367       .  A
C1           C38   1.443       .  S
C1         C3310   1.486       .  S
N2           N19   1.335       .  A
N2           N24   1.321       .  A
N2          Co39   2.151       .  S
C3           N28   1.331       .  A
C3           C41   1.461       .  S
C3           H48   1.081       .  S
H4           C45   1.080       .  S
C5           N29   1.342       .  A
C5            C9   1.461       .  S
C5           H34   1.082       .  S
Co6          N24   2.042       .  S
Co6          N14   2.080       .  S
Co6          N46   2.048       .  S
Co6          N22   2.075       .  S
Co6         Cl50   2.461       .  S
N7           C45   1.330       .  A
N7           N14   1.313       .  A
N7           Co8   2.052       .  S
Co8          N11   2.053       .  S
Co8          N28   2.062       .  S
Co8          N15   2.051       .  S
Co8         Cl50   2.422       .  S
C9           N47   1.340       .  A
C9         C3301   1.454       .  S
N10          N17   1.324       .  A
N10          N40   1.327       .  A
N10         Co43   2.081       .  S
N11          N29   1.316       .  A
N11          N47   1.317       .  A
N12          C41   1.351       .  A
N12          N22   1.326       .  A
H13          C38   1.080       .  S
N14          N35   1.327       .  A
N15          N33   1.317       .  A
N15          N20   1.318       .  A
C16          N20   1.339       .  A
C16          C44   1.471       .  S
C16        C3293   1.468       .  S
N17          C32   1.357       .  A
N17         Co39   2.157       .  S
C18          N46   1.330       .  A
C18          C21   1.447       .  S
C18          H52   1.080       .  S
C21          N42   1.368       .  A
C21        C3281   1.495       .  S
N22          N28   1.315       .  A
N23          C49   1.350       .  A
N23          N25   1.326       .  A
N23         Co39   2.151       .  S
N24          C38   1.329       .  A
N25          N53   1.328       .  A
N25         Co43   2.072       .  S
H26          C49   1.081       .  S
H27          C44   1.081       .  S
N29         Co43   2.076       .  S
N30          N42   1.337       .  A
N30          N46   1.322       .  A
N30         Co39   2.159       .  S
C31          N35   1.353       .  A
C31          C45   1.456       .  S
C31        C3305   1.471       .  S
C32          C51   1.483       .  S
C32          H36   1.082       .  S
N33          C44   1.348       .  A
N33         Co43   2.101       .  S
C37          N53   1.345       .  A
C37          C49   1.476       .  S
C37        C3285   1.492       .  S
Co39        Cl50   2.449       .  S
N40          C51   1.345       .  A
C41        C3289   1.472       .  S
Co43        Cl50   2.472       .  S
C51        C3297   1.507       .  S
C54          N72   1.348       .  A
C54          C91   1.459       .  S
C54        C3265   1.469       .  S
N55          N72   1.326       .  A
N55          N77   1.317       .  A
N55         Co92   2.079       .  S
C56          N81   1.341       .  A
C56          C94   1.460       .  S
C56         H101   1.081       .  S
H57          C98   1.081       .  S
C58          N82   1.353       .  A
C58          C62   1.480       .  S
C58          H87   1.081       .  S
Co59         N77   2.069       .  S
Co59         N67   2.070       .  S
Co59         N99   2.070       .  S
Co59         N75   2.058       .  S
Co59       Cl103   2.430       .  S
N60          C98   1.341       .  A
N60          N67   1.316       .  A
N60         Co61   2.072       .  S
Co61         N64   2.064       .  S
Co61         N81   2.075       .  S
Co61         N68   2.063       .  S
Co61       Cl103   2.460       .  S
C62         N100   1.342       .  A
C62        C3277   1.492       .  S
N63          N70   1.318       .  A
N63          N93   1.336       .  A
N63         Co96   2.148       .  S
N64          N82   1.325       .  A
N64         N100   1.325       .  A
N65          C94   1.340       .  A
N65          N75   1.318       .  A
H66          C91   1.081       .  S
N67          N88   1.321       .  A
N68          N86   1.322       .  A
N68          N73   1.325       .  A
C69          N73   1.343       .  A
C69          C97   1.471       .  S
C69        C3273   1.482       .  S
N70          C85   1.322       .  A
N70         Co92   2.019       .  S
C71          N99   1.333       .  A
C71          C74   1.458       .  S
C71         H105   1.081       .  S
C74          N95   1.345       .  A
C74        C3261   1.462   1_556  S
N75          N81   1.318       .  A
N76         C102   1.328       .  A
N76          N78   1.321       .  A
N76         Co92   2.044       .  S
N77          C91   1.334       .  A
N78         N106   1.339       .  A
N78         Co96   2.167       .  S
H79         C102   1.079       .  S
H80          C97   1.081       .  S
N82         Co96   2.157       .  S
N83          N95   1.325       .  A
N83          N99   1.314       .  A
N83         Co92   2.056       .  S
C84          N88   1.346       .  A
C84          C98   1.457       .  S
C84        C3306   1.462       .  S
C85         C104   1.438       .  S
C85          H89   1.079       .  S
N86          C97   1.348       .  A
N86         Co96   2.127       .  S
C90         N106   1.370       .  A
C90         C102   1.445       .  S
C90        C3257   1.500   1_556  S
Co92       Cl103   2.459       .  S
N93         C104   1.367       .  A
C94        C3269   1.455       .  S
Co96       Cl103   2.448       .  S
C104       C3253   1.481       .  S
C107        N125   1.350       .  A
C107        C144   1.445       .  S
C107       C3290   1.459       .  S
N108        N125   1.327       .  A
N108        N130   1.317       .  A
N108       Co145   2.070       .  S
C109        N134   1.338       .  A
C109        C147   1.450       .  S
C109        H154   1.082       .  S
H110        C151   1.081       .  S
C111        N135   1.353       .  A
C111        C115   1.479       .  S
C111        H140   1.082       .  S
Co112       N130   2.070       .  S
Co112       N120   2.055       .  S
Co112       N152   2.060       .  S
Co112       N128   2.073       .  S
Co112      Cl156   2.436       .  S
N113        C151   1.350       .  A
N113        N120   1.318       .  A
N113       Co114   2.098       .  S
Co114       N117   2.048       .  S
Co114       N134   2.057       .  S
Co114       N121   2.065       .  S
Co114      Cl156   2.454       .  S
C115        N153   1.340       .  A
C115       C3237   1.488       .  S
N116        N123   1.323       .  A
N116        N146   1.329       .  A
N116       Co149   2.141       .  S
N117        N135   1.324       .  A
N117        N153   1.322       .  A
N118        C147   1.353       .  A
N118        N128   1.319       .  A
H119        C144   1.080       .  S
N120        N141   1.316       .  A
N121        N139   1.324       .  A
N121        N126   1.322       .  A
C122        N126   1.339       .  A
C122        C150   1.480       .  S
C122       C3241   1.490       .  S
N123        C138   1.337       .  A
N123       Co145   2.052       .  S
C124        N152   1.334       .  A
C124        C127   1.466       .  S
C124        H158   1.081       .  S
C127        N148   1.345       .  A
C127       C3270   1.462       .  S
N128        N134   1.314       .  A
N129        C155   1.326       .  A
N129        N131   1.319       .  A
N129       Co145   2.031       .  S
N130        C144   1.334       .  A
N131        N159   1.337       .  A
N131       Co149   2.151       .  S
H132        C155   1.080       .  S
H133        C150   1.082       .  S
N135       Co149   2.153       .  S
N136        N148   1.321       .  A
N136        N152   1.314       .  A
N136       Co145   2.063       .  S
C137        N141   1.337       .  A
C137        C151   1.471       .  S
C137       C3233   1.465       .  S
C138        C157   1.447       .  S
C138        H142   1.082       .  S
N139        C150   1.354       .  A
N139       Co149   2.142       .  S
C143        N159   1.369       .  A
C143        C155   1.439       .  S
C143       C3249   1.487       .  S
Co145      Cl156   2.445       .  S
N146        C157   1.361       .  A
C147       C3245   1.462   1_556  S
Co149      Cl156   2.453       .  S
C157       C3229   1.476       .  S
C160        N178   1.343       .  A
C160        C197   1.465       .  S
C160       C3302   1.460       .  S
N161        N178   1.321       .  A
N161        N183   1.314       .  A
N161       Co198   2.056       .  S
C162        N187   1.341       .  A
C162        C200   1.460       .  S
C162        H207   1.082       .  S
H163        C204   1.081       .  S
C164        N188   1.358       .  A
C164        C168   1.486       .  S
C164        H193   1.082       .  S
Co165       N183   2.066       .  S
Co165       N173   2.051       .  S
Co165       N205   2.047       .  S
Co165       N181   2.061       .  S
Co165      Cl209   2.432       .  S
N166        C204   1.345       .  A
N166        N173   1.315       .  A
N166       Co167   2.087       .  S
Co167       N170   2.038       .  S
Co167       N187   2.065       .  S
Co167       N174   2.071       .  S
Co167      Cl209   2.457       .  S
C168        N206   1.334       .  A
C168       C3205   1.487       .  S
N169        N176   1.320       .  A
N169        N199   1.336       .  A
N169       Co202   2.152       .  S
N170        N188   1.325       .  A
N170        N206   1.317       .  A
N171        C200   1.338   1_565  A
N171        N181   1.316   1_565  A
H172        C197   1.080   1_565  S
N173        N194   1.318       .  A
N174        N192   1.325       .  A
N174        N179   1.327       .  A
C175        N179   1.345       .  A
C175        C203   1.473       .  S
C175       C3221   1.489       .  S
N176        C191   1.329       .  A
N176       Co198   2.041       .  S
C177        N205   1.330   1_565  A
C177        C180   1.437   1_565  S
C177        H211   1.081       .  S
C180        N201   1.354       .  A
C180       C3218   1.457   1_545  S
N181        N187   1.317       .  A
N182        C208   1.329       .  A
N182        N184   1.322       .  A
N182       Co198   2.029       .  S
N183        C197   1.335       .  A
N184        N212   1.335       .  A
N184       Co202   2.164       .  S
H185        C208   1.081       .  S
H186        C203   1.082       .  S
N188       Co202   2.164       .  S
N189        N201   1.329       .  A
N189        N205   1.315       .  A
N189       Co198   2.083       .  S
C190        N194   1.343       .  A
C190        C204   1.464       .  S
C190       C3266   1.461   1_545  S
C191        C210   1.441       .  S
C191        H195   1.080       .  S
N192        C203   1.349       .  A
N192       Co202   2.140       .  S
C196        N212   1.367       .  A
C196        C208   1.440       .  S
C196       C3213   1.483       .  S
Co198      Cl209   2.449       .  S
N199        C210   1.368       .  A
C200       C3225   1.451   1_545  S
Co202      Cl209   2.450       .  S
C210       C3209   1.488       .  S
C213        N231   1.350       .  A
C213        C250   1.444       .  S
C213       C3262   1.454       .  S
N214        N231   1.326       .  A
N214        N236   1.314       .  A
N214       Co251   2.075       .  S
C215        N240   1.348       .  A
C215        C253   1.471       .  S
C215        H260   1.082       .  S
H216        C257   1.081       .  S
C217        N241   1.354       .  A
C217        C221   1.478       .  S
C217        H246   1.082       .  S
Co218       N236   2.051       .  S
Co218       N226   2.055       .  S
Co218       N258   2.069       .  S
Co218       N234   2.039       .  S
Co218      Cl262   2.427       .  S
N219        C257   1.345       .  A
N219        N226   1.317       .  A
N219       Co220   2.077       .  S
Co220       N223   2.080       .  S
Co220       N240   2.102       .  S
Co220       N227   2.065       .  S
Co220      Cl262   2.466       .  S
C221        N259   1.345       .  A
C221       C3185   1.498       .  S
N222        N229   1.319       .  A
N222        N252   1.335       .  A
N222       Co255   2.159       .  S
N223        N241   1.324       .  A
N223        N259   1.326       .  A
N224        C253   1.335       .  A
N224        N234   1.315       .  A
H225        C250   1.081   1_556  S
N226        N247   1.316       .  A
N227        N245   1.325       .  A
N227        N232   1.325       .  A
C228        N232   1.343       .  A
C228        C256   1.479       .  S
C228       C3193   1.495       .  S
N229        C244   1.326       .  A
N229       Co251   2.014       .  S
C230        N258   1.335       .  A
C230        C233   1.463       .  S
C230        H264   1.082   1_554  S
C233        N254   1.343       .  A
C233       C3226   1.460   1_554  S
N234        N240   1.317       .  A
N235        C261   1.329       .  A
N235        N237   1.321       .  A
N235       Co251   2.040       .  S
N236        C250   1.333       .  A
N237        N265   1.335       .  A
N237       Co255   2.150       .  S
H238        C261   1.081       .  S
H239        C256   1.081       .  S
N241       Co255   2.147       .  S
N242        N254   1.321       .  A
N242        N258   1.313       .  A
N242       Co251   2.049       .  S
C243        N247   1.338       .  A
C243        C257   1.459       .  S
C243       C3246   1.453       .  S
C244        C263   1.434       .  S
C244        H248   1.081       .  S
N245        C256   1.354       .  A
N245       Co255   2.157       .  S
C249        N265   1.366       .  A
C249        C261   1.441       .  S
C249       C3201   1.483       .  S
Co251      Cl262   2.450       .  S
N252        C263   1.368       .  A
C253       C3198   1.460   1_554  S
Co255      Cl262   2.448       .  S
C263       C3190   1.478       .  S
C266        N284   1.345       .  A
C266        C303   1.470       .  S
C266       C3234   1.475       .  S
N267        N284   1.323       .  A
N267        N289   1.317       .  A
N267       Co304   2.065       .  S
C268        N293   1.340       .  A
C268        C306   1.453       .  S
C268        H313   1.081       .  S
H269        C310   1.081       .  S
C270        N294   1.355       .  A
C270        C274   1.481       .  S
C270        H299   1.082       .  S
Co271       N289   2.087       .  S
Co271       N279   2.095       .  S
Co271       N311   2.094       .  S
Co271       N287   2.081       .  S
Co271      Cl315   2.452       .  S
N272        C310   1.339       .  A
N272        N279   1.319       .  A
N272       Co273   2.067       .  S
Co273       N276   2.051       .  S
Co273       N293   2.060       .  S
Co273       N280   2.053       .  S
Co273      Cl315   2.443       .  S
C274        N312   1.339       .  A
C274       C3173   1.489       .  S
N275        N282   1.320       .  A
N275        N305   1.334       .  A
N275       Co308   2.153       .  S
N276        N294   1.323       .  A
N276        N312   1.321       .  A
N277        C306   1.352       .  A
N277        N287   1.319       .  A
H278        C303   1.081       .  S
N279        N300   1.324       .  A
N280        N298   1.322       .  A
N280        N285   1.322       .  A
C281        N285   1.339       .  A
C281        C309   1.481       .  S
C281       C3177   1.491       .  S
N282        C297   1.327       .  A
N282       Co304   2.023       .  S
C283        N311   1.342       .  A
C283        C286   1.472       .  S
C283        H317   1.082       .  S
C286        N307   1.340       .  A
C286       C3197   1.468       .  S
N287        N293   1.317       .  A
N288        C314   1.328       .  A
N288        N290   1.319       .  A
N288       Co304   2.037       .  S
N289        C303   1.339       .  A
N290        N318   1.336       .  A
N290       Co308   2.148       .  S
H291        C314   1.080       .  S
H292        C309   1.082       .  S
N294       Co308   2.149       .  S
N295        N307   1.320       .  A
N295        N311   1.316       .  A
N295       Co304   2.047       .  S
C296        N300   1.355       .  A
C296        C310   1.451       .  S
C296       C3294   1.473       .  S
C297        C316   1.437       .  S
C297        H301   1.081       .  S
N298        C309   1.355       .  A
N298       Co308   2.150       .  S
C302        N318   1.367       .  A
C302        C314   1.441       .  S
C302       C3181   1.486       .  S
Co304      Cl315   2.434       .  S
N305        C316   1.367       .  A
C306       C3217   1.468       .  S
Co308      Cl315   2.466       .  S
C316       C3169   1.479       .  S
C319        N337   1.352       .  A
C319        C356   1.448       .  S
C319       C3161   1.459       .  S
N320        N337   1.320       .  A
N320        N342   1.316       .  A
N320       Co357   2.080       .  S
C321        N346   1.352       .  A
C321        C359   1.479       .  S
C321        H366   1.082       .  S
H322        C363   1.082       .  S
C323        N347   1.325       .  A
C323        C327   1.437       .  S
C323        H352   1.080       .  S
Co324       N342   2.051       .  S
Co324       N332   2.054       .  S
Co324       N364   2.074       .  S
Co324       N340   2.034       .  S
Co324      Cl368   2.442       .  S
N325        C363   1.351       .  A
N325        N332   1.323       .  A
N325       Co326   2.138       .  S
Co326       N329   2.147       .  S
Co326       N346   2.142       .  S
Co326       N333   2.144       .  S
Co326      Cl368   2.464       .  S
C327        N365   1.366       .  A
C327       C3153   1.476       .  S
N328        N335   1.316       .  A
N328        N358   1.327       .  A
N328       Co361   2.083       .  S
N329        N347   1.320       .  A
N329        N365   1.334       .  A
N330        C359   1.334       .  A
N330        N340   1.318       .  A
H331        C356   1.082       .  S
N332        N353   1.321       .  A
N333        N351   1.320       .  A
N333        N338   1.336       .  A
C334        N338   1.366       .  A
C334        C362   1.445       .  S
C334       C3137   1.490       .  S
N335        C350   1.338       .  A
N335       Co357   2.076       .  S
C336        N364   1.341       .  A
C336        C339   1.456       .  S
C336        H370   1.082       .  S
C339        N360   1.349       .  A
C339       C3141   1.468       .  S
N340        N346   1.322       .  A
N341        C367   1.337       .  A
N341        N343   1.316       .  A
N341       Co357   2.082       .  S
N342        C356   1.337       .  A
N343        N371   1.321       .  A
N343       Co361   2.046       .  S
H344        C367   1.081       .  S
H345        C362   1.080       .  S
N347       Co361   2.022       .  S
N348        N360   1.321       .  A
N348        N364   1.317       .  A
N348       Co357   2.073       .  S
C349        N353   1.339       .  A
C349        C363   1.476       .  S
C349       C3165   1.482       .  S
C350        C369   1.463       .  S
C350        H354   1.080       .  S
N351        C362   1.329       .  A
N351       Co361   2.049       .  S
C355        N371   1.341       .  A
C355        C367   1.467       .  S
C355       C3149   1.461       .  S
Co357      Cl368   2.444       .  S
N358        C369   1.350       .  A
C359       C3145   1.476       .  S
Co361      Cl368   2.439       .  S
C369       C3157   1.479       .  S
C372        N390   1.352       .  A
C372        C409   1.441       .  S
C372       C3162   1.454       .  S
N373        N390   1.324       .  A
N373        N395   1.316       .  A
N373       Co410   2.072       .  S
C374        N399   1.342       .  A
C374        C412   1.457       .  S
C374        H419   1.083       .  S
H375        C416   1.082       .  S
C376        N400   1.350       .  A
C376        C380   1.473       .  S
C376        H405   1.081       .  S
Co377       N395   2.053       .  S
Co377       N385   2.054       .  S
Co377       N417   2.070       .  S
Co377       N393   2.067       .  S
Co377      Cl421   2.425       .  S
N378        C416   1.347       .  A
N378        N385   1.317       .  A
N378       Co379   2.085       .  S
Co379       N382   2.063       .  S
Co379       N399   2.072       .  S
Co379       N386   2.060       .  S
Co379      Cl421   2.470       .  S
C380        N418   1.343       .  A
C380       C3109   1.485       .  S
N381        N388   1.323       .  A
N381        N411   1.336       .  A
N381       Co414   2.163       .  S
N382        N400   1.323       .  A
N382        N418   1.324       .  A
N383        C412   1.350       .  A
N383        N393   1.318       .  A
H384        C409   1.081       .  S
N385        N406   1.315       .  A
N386        N404   1.325       .  A
N386        N391   1.323       .  A
C387        N391   1.341       .  A
C387        C415   1.485       .  S
C387       C3113   1.499       .  S
N388        C403   1.341       .  A
N388       Co410   2.067       .  S
C389        N417   1.337       .  A
C389        C392   1.465       .  S
C389        H423   1.082       .  S
C392        N413   1.347       .  A
C392       C3125   1.473       .  S
N393        N399   1.316       .  A
N394        C420   1.329       .  A
N394        N396   1.320       .  A
N394       Co410   2.039       .  S
N395        C409   1.332       .  A
N396        N424   1.334       .  A
N396       Co414   2.143       .  S
H397        C420   1.081       .  S
H398        C415   1.081       .  S
N400       Co414   2.136       .  S
N401        N413   1.324       .  A
N401        N417   1.316       .  A
N401       Co410   2.080       .  S
C402        N406   1.336       .  A
C402        C416   1.466       .  S
C402       C3121   1.455       .  S
C403        C422   1.453       .  S
C403        H407   1.080       .  S
N404        C415   1.358       .  A
N404       Co414   2.165       .  S
C408        N424   1.365       .  A
C408        C420   1.441       .  S
C408       C3129   1.481       .  S
Co410      Cl421   2.458       .  S
N411        C422   1.367       .  A
C412       C3117   1.469       .  S
Co414      Cl421   2.445       .  S
C422       C3133   1.500       .  S
C425        N443   1.342       .  A
C425        C462   1.463       .  S
C425       C3089   1.461       .  S
N426        N443   1.322       .  A
N426        N448   1.315       .  A
N426       Co463   2.056       .  S
C427        N452   1.345       .  A
C427        C465   1.466       .  S
C427        H472   1.081       .  S
H428        C469   1.081       .  S
C429        N453   1.352       .  A
C429        C433   1.477       .  S
C429        H458   1.082       .  S
Co430       N448   2.075       .  S
Co430       N438   2.069       .  S
Co430       N470   2.069       .  S
Co430       N446   2.063       .  S
Co430      Cl474   2.436       .  S
N431        C469   1.341       .  A
N431        N438   1.317       .  A
N431       Co432   2.084       .  S
Co432       N435   2.071       .  S
Co432       N452   2.091       .  S
Co432       N439   2.074       .  S
Co432      Cl474   2.452       .  S
C433        N471   1.343       .  A
C433       C3086   1.492       .  S
N434        N441   1.318       .  A
N434        N464   1.337       .  A
N434       Co467   2.155       .  S
N435        N453   1.325       .  A
N435        N471   1.324       .  A
N436        C465   1.342       .  A
N436        N446   1.319       .  A
H437        C462   1.081       .  S
N438        N459   1.321       .  A
N439        N457   1.325       .  A
N439        N444   1.325       .  A
C440        N444   1.345       .  A
C440        C468   1.470       .  S
C440       C3105   1.484       .  S
N441        C456   1.321       .  A
N441       Co463   2.014       .  S
C442        N470   1.333       .  A
C442        C445   1.460       .  S
C442        H476   1.081       .  S
C445        N466   1.343       .  A
C445       C3101   1.458   1_556  S
N446        N452   1.318       .  A
N447        C473   1.324       .  A
N447        N449   1.318       .  A
N447       Co463   2.024       .  S
N448        C462   1.336       .  A
N449        N477   1.338       .  A
N449       Co467   2.160       .  S
H450        C473   1.079       .  S
H451        C468   1.081       .  S
N453       Co467   2.144       .  S
N454        N466   1.322       .  A
N454        N470   1.314       .  A
N454       Co463   2.046       .  S
C455        N459   1.346       .  A
C455        C469   1.463       .  S
C455       C3142   1.466       .  S
C456        C475   1.435       .  S
C456        H460   1.080       .  S
N457        C468   1.348       .  A
N457       Co467   2.128       .  S
C461        N477   1.370       .  A
C461        C473   1.441       .  S
C461       C3097   1.492   1_556  S
Co463      Cl474   2.448       .  S
N464        C475   1.371       .  A
C465       C3126   1.465       .  S
Co467      Cl474   2.457       .  S
C475       C3093   1.483       .  S
C478        N496   1.341       .  A
C478        C515   1.466       .  S
C478       C3122   1.466   1_455  S
N479        N496   1.322       .  A
N479        N501   1.317       .  A
N479       Co516   2.051       .  S
C480        N505   1.337       .  A
C480        C518   1.448       .  S
C480        H525   1.082       .  S
H481        C522   1.081       .  S
C482        N506   1.358       .  A
C482        C486   1.484       .  S
C482        H511   1.081       .  S
Co483       N501   2.088       .  S
Co483       N491   2.072       .  S
Co483       N523   2.078       .  S
Co483       N499   2.089       .  S
Co483      Cl527   2.439       .  S
N484        C522   1.346       .  A
N484        N491   1.318       .  A
N484       Co485   2.091       .  S
Co485       N488   2.051       .  S
Co485       N505   2.053       .  S
Co485       N492   2.069       .  S
Co485      Cl527   2.456       .  S
C486        N524   1.340       .  A
C486       C3061   1.497       .  S
N487        N494   1.320       .  A
N487        N517   1.336       .  A
N487       Co520   2.157       .  S
N488        N506   1.324       .  A
N488        N524   1.322       .  A
N489        C518   1.354       .  A
N489        N499   1.322       .  A
H490        C515   1.081   1_655  S
N491        N512   1.321   1_455  A
N492        N510   1.324       .  A
N492        N497   1.325       .  A
C493        N497   1.342       .  A
C493        C521   1.479       .  S
C493       C3069   1.492       .  S
N494        C509   1.332       .  A
N494       Co516   2.043       .  S
C495        N523   1.337       .  A
C495        C498   1.465       .  S
C495        H529   1.081   1_455  S
C498        N519   1.345       .  A
C498       C3081   1.467   1_556  S
N499        N505   1.317       .  A
N500        C526   1.327       .  A
N500        N502   1.318       .  A
N500       Co516   2.026       .  S
N501        C515   1.339       .  A
N502        N530   1.343       .  A
N502       Co520   2.184       .  S
H503        C526   1.080       .  S
H504        C521   1.082       .  S
N506       Co520   2.165       .  S
N507        N519   1.323       .  A
N507        N523   1.316       .  A
N507       Co516   2.062       .  S
C508        N512   1.345   1_455  A
C508        C522   1.466       .  S
C508       C3158   1.471   1_455  S
C509        C528   1.443       .  S
C509        H513   1.081       .  S
N510        C521   1.353       .  A
N510       Co520   2.146       .  S
C514        N530   1.376       .  A
C514        C526   1.439       .  S
C514       C3077   1.505       .  S
Co516      Cl527   2.453       .  S
N517        C528   1.368       .  A
C518       C3073   1.465   1_455  S
Co520      Cl527   2.459       .  S
C528       C3066   1.490       .  S
C531        N549   1.349       .  A
C531        C568   1.443       .  S
C531       C3102   1.450       .  S
N532        N549   1.324       .  A
N532        N554   1.316       .  A
N532       Co569   2.069       .  S
C533        N558   1.345       .  A
C533        C571   1.467       .  S
C533        H578   1.082       .  S
H534        C575   1.081       .  S
C535        N559   1.350       .  A
C535        C539   1.472       .  S
C535        H564   1.082       .  S
Co536       N554   2.056       .  S
Co536       N544   2.068       .  S
Co536       N576   2.081       .  S
Co536       N552   2.050       .  S
Co536      Cl580   2.432       .  S
N537        C575   1.344       .  A
N537        N544   1.316       .  A
N537       Co538   2.072       .  S
Co538       N541   2.089       .  S
Co538       N558   2.099       .  S
Co538       N545   2.059       .  S
Co538      Cl580   2.463       .  S
C539        N577   1.348       .  A
C539       C3041   1.496       .  S
N540        N547   1.318       .  A
N540        N570   1.334       .  A
N540       Co573   2.154       .  S
N541        N559   1.325       .  A
N541        N577   1.328       .  A
N542        C571   1.340       .  A
N542        N552   1.317       .  A
H543        C568   1.080   1_556  S
N544        N565   1.318       .  A
N545        N563   1.324       .  A
N545        N550   1.325       .  A
C546        N550   1.341       .  A
C546        C574   1.481       .  S
C546       C3057   1.494       .  S
N547        C562   1.327       .  A
N547       Co569   2.014       .  S
C548        N576   1.339       .  A
C548        C551   1.468       .  S
C548        H582   1.081   1_554  S
C551        N572   1.339       .  A
C551       C3054   1.461       .  S
N552        N558   1.319       .  A
N553        C579   1.327       .  A
N553        N555   1.320       .  A
N553       Co569   2.040       .  S
N554        C568   1.333       .  A
N555        N583   1.335       .  A
N555       Co573   2.147       .  S
H556        C579   1.080       .  S
H557        C574   1.081       .  S
N559       Co573   2.137       .  S
N560        N572   1.320       .  A
N560        N576   1.314       .  A
N560       Co569   2.042       .  S
C561        N565   1.341       .  A
C561        C575   1.460       .  S
C561       C3118   1.458   1_554  S
C562        C581   1.437       .  S
C562        H566   1.081       .  S
N563        C574   1.354       .  A
N563       Co573   2.154       .  S
C567        N583   1.366       .  A
C567        C579   1.441       .  S
C567       C3050   1.483       .  S
Co569      Cl580   2.448       .  S
N570        C581   1.367       .  A
C571       C3082   1.460       .  S
Co573      Cl580   2.449       .  S
C581       C3045   1.479       .  S
C584        N602   1.355       .  A
C584        C621   1.438       .  S
C584       C3150   1.454       .  S
N585        N602   1.327       .  A
N585        N607   1.315       .  A
N585       Co622   2.093       .  S
C586        N611   1.345       .  A
C586        C624   1.463       .  S
C586        H631   1.081       .  S
H587        C628   1.082       .  S
C588        N612   1.354       .  A
C588        C592   1.480       .  S
C588        H617   1.081       .  S
Co589       N607   2.038       .  S
Co589       N597   2.050       .  S
Co589       N629   2.047       .  S
Co589       N605   2.044       .  S
Co589      Cl633   2.429       .  S
N590        C628   1.345       .  A
N590        N597   1.314       .  A
N590       Co591   2.073       .  S
Co591       N594   2.051       .  S
Co591       N611   2.079       .  S
Co591       N598   2.049       .  S
Co591      Cl633   2.472       .  S
C592        N630   1.338       .  A
C592       C3025   1.486       .  S
N593        N600   1.323       .  A
N593        N623   1.336       .  A
N593       Co626   2.160       .  S
N594        N612   1.324       .  A
N594        N630   1.320       .  A
N595        C624   1.336       .  A
N595        N605   1.315       .  A
H596        C621   1.081       .  S
N597        N618   1.316       .  A
N598        N616   1.324       .  A
N598        N603   1.321       .  A
C599        N603   1.338       .  A
C599        C627   1.482       .  S
C599       C3037   1.490       .  S
N600        C615   1.335       .  A
N600       Co622   2.057       .  S
C601        N629   1.330       .  A
C601        C604   1.439       .  S
C601        H635   1.081       .  S
C604        N625   1.354       .  A
C604       C3074   1.458       .  S
N605        N611   1.315       .  A
N606        C632   1.340       .  A
N606        N608   1.324       .  A
N606       Co622   2.073       .  S
N607        C621   1.330       .  A
N608        N636   1.332       .  A
N608       Co626   2.148       .  S
H609        C632   1.080       .  S
H610        C627   1.081       .  S
N612       Co626   2.151       .  S
N613        N625   1.328       .  A
N613        N629   1.316       .  A
N613       Co622   2.086       .  S
C614        N618   1.338       .  A
C614        C628   1.461       .  S
C614       C3090   1.452       .  S
C615        C634   1.446       .  S
C615        H619   1.082       .  S
N616        C627   1.355       .  A
N616       Co626   2.159       .  S
C620        N636   1.362       .  A
C620        C632   1.453       .  S
C620       C3033   1.491       .  S
Co622      Cl633   2.465       .  S
N623        C634   1.368       .  A
C624       C3053   1.451       .  S
Co626      Cl633   2.434       .  S
C634       C3029   1.494       .  S
C637        N655   1.365       .  A
C637        C674   1.451       .  S
C637       C3021   1.494       .  S
N638        N655   1.335       .  A
N638        N660   1.324       .  A
N638       Co675   2.152       .  S
C639        N664   1.331       .  A
C639        C677   1.442       .  S
C639        H684   1.081       .  S
H640        C681   1.081       .  S
C641        N665   1.343       .  A
C641        C645   1.462       .  S
C641        H670   1.082       .  S
Co642       N660   2.064       .  S
Co642       N650   2.084       .  S
Co642       N682   2.057       .  S
Co642       N658   2.084       .  S
Co642      Cl686   2.466       .  S
N643        C681   1.329       .  A
N643        N650   1.314       .  A
N643       Co644   2.040       .  S
Co644       N647   2.054       .  S
Co644       N664   2.051       .  S
Co644       N651   2.038       .  S
Co644      Cl686   2.418       .  S
C645        N683   1.340       .  A
C645       C3001   1.453       .  S
N646        N653   1.323       .  A
N646        N676   1.323       .  A
N646       Co679   2.054       .  S
N647        N665   1.315       .  A
N647        N683   1.317       .  A
N648        C677   1.354       .  A
N648        N658   1.326       .  A
H649        C674   1.081       .  S
N650        N671   1.327       .  A
N651        N669   1.313       .  A
N651        N656   1.315       .  A
C652        N656   1.336       .  A
C652        C680   1.468       .  S
C652       C3005   1.453       .  S
N653        C668   1.354       .  A
N653       Co675   2.153       .  S
C654        N682   1.334       .  A
C654        C657   1.447       .  S
C654        H688   1.081       .  S
C657        N678   1.366       .  A
C657       C3013   1.494       .  S
N658        N664   1.315       .  A
N659        C685   1.356       .  A
N659        N661   1.324       .  A
N659       Co675   2.154       .  S
N660        C674   1.334       .  A
N661        N689   1.320       .  A
N661       Co679   2.054       .  S
H662        C685   1.082       .  S
H663        C680   1.082       .  S
N665       Co679   2.075       .  S
N666        N678   1.336       .  A
N666        N682   1.322       .  A
N666       Co675   2.153       .  S
C667        N671   1.355       .  A
C667        C681   1.441       .  S
C667       C3017   1.458       .  S
C668        C687   1.480       .  S
C668        H672   1.082       .  S
N669        C680   1.344       .  A
N669       Co679   2.078       .  S
C673        N689   1.339       .  A
C673        C685   1.481       .  S
C673       C2998   1.490       .  S
Co675      Cl686   2.432       .  S
N676        C687   1.340       .  A
C677       C3009   1.455       .  S
Co679      Cl686   2.473       .  S
C687       C2993   1.489       .  S
C690        N708   1.341       .  A
C690        C727   1.463       .  S
C690       C3010   1.462       .  S
N691        N708   1.322       .  A
N691        N713   1.317       .  A
N691       Co728   2.055       .  S
C692        N717   1.343       .  A
C692        C730   1.462       .  S
C692        H737   1.082       .  S
H693        C734   1.082       .  S
C694        N718   1.356       .  A
C694        C698   1.481       .  S
C694        H723   1.082       .  S
Co695       N713   2.077       .  S
Co695       N703   2.081       .  S
Co695       N735   2.064       .  S
Co695       N711   2.069       .  S
Co695      Cl739   2.441       .  S
N696        C734   1.342       .  A
N696        N703   1.318       .  A
N696       Co697   2.084       .  S
Co697       N700   2.043       .  S
Co697       N717   2.071       .  S
Co697       N704   2.057       .  S
Co697      Cl739   2.447       .  S
C698        N736   1.337       .  A
C698       C2981   1.485       .  S
N699        N706   1.321       .  A
N699        N729   1.335       .  A
N699       Co732   2.153       .  S
N700        N718   1.324       .  A
N700        N736   1.317       .  A
N701        C730   1.343       .  A
N701        N711   1.318       .  A
H702        C727   1.081       .  S
N703        N724   1.324       .  A
N704        N722   1.324       .  A
N704        N709   1.321       .  A
C705        N709   1.339       .  A
C705        C733   1.474       .  S
C705       C2977   1.478       .  S
N706        C721   1.333       .  A
N706       Co728   2.053       .  S
C707        N735   1.334       .  A
C707        C710   1.443       .  S
C707        H741   1.080       .  S
C710        N731   1.348       .  A
C710       C2969   1.452       .  S
N711        N717   1.315       .  A
N712        C738   1.330       .  A
N712        N714   1.318       .  A
N712       Co728   2.037       .  S
N713        C727   1.337       .  A
N714        N742   1.339       .  A
N714       Co732   2.165       .  S
H715        C738   1.080       .  S
H716        C733   1.083       .  S
N718       Co732   2.150       .  S
N719        N731   1.324       .  A
N719        N735   1.317       .  A
N719       Co728   2.067       .  S
C720        N724   1.352       .  A
C720        C734   1.458       .  S
C720       C2985   1.478       .  S
C721        C740   1.446       .  S
C721        H725   1.080       .  S
N722        C733   1.350       .  A
N722       Co732   2.135       .  S
C726        N742   1.371       .  A
C726        C738   1.443       .  S
C726       C2965   1.498       .  S
Co728      Cl739   2.451       .  S
N729        C740   1.366       .  A
C730       C2973   1.460       .  S
Co732      Cl739   2.461       .  S
C740       C2990   1.490       .  S
C743        N761   1.361       .  A
C743        C780   1.444       .  S
C743       C2957   1.476       .  S
N744        N761   1.331       .  A
N744        N766   1.321       .  A
N744       Co781   2.124       .  S
C745        N770   1.339       .  A
C745        C783   1.451       .  S
C745        H790   1.082       .  S
H746        C787   1.082       .  S
C747        N771   1.350       .  A
C747        C751   1.475       .  S
C747        H776   1.081       .  S
Co748       N766   2.058       .  S
Co748       N756   2.093       .  S
Co748       N788   2.094       .  S
Co748       N764   2.072       .  S
Co748      Cl792   2.439       .  S
N749        C787   1.338       .  A
N749        N756   1.315       .  A
N749       Co750   2.039       .  S
Co750       N753   2.055       .  S
Co750       N770   2.062       .  S
Co750       N757   2.012       .  S
Co750      Cl792   2.458       .  S
C751        N789   1.340       .  A
C751       C2961   1.481       .  S
N752        N759   1.322       .  A
N752        N782   1.332       .  A
N752       Co785   2.144       .  S
N753        N771   1.324       .  A
N753        N789   1.323       .  A
N754        C783   1.352       .  A
N754        N764   1.318       .  A
H755        C780   1.083       .  S
N756        N777   1.322       .  A
N757        N775   1.320       .  A
N757        N762   1.315       .  A
C758        N762   1.328       .  A
C758        C786   1.488       .  S
C758       C2949   1.481       .  S
N759        C774   1.339       .  A
N759       Co781   2.056       .  S
C760        N788   1.343       .  A
C760        C763   1.472       .  S
C760        H794   1.082       .  S
C763        N784   1.341       .  A
C763       C2941   1.472       .  S
N764        N770   1.316       .  A
N765        C791   1.343       .  A
N765        N767   1.324       .  A
N765       Co781   2.093       .  S
N766        C780   1.334       .  A
N767        N795   1.335       .  A
N767       Co785   2.148       .  S
H768        C791   1.081       .  S
H769        C786   1.081       .  S
N771       Co785   2.144       .  S
N772        N784   1.321       .  A
N772        N788   1.316       .  A
N772       Co781   2.052       .  S
C773        N777   1.352       .  A
C773        C787   1.445       .  S
C773       C3018   1.463       .  S
C774        C793   1.451       .  S
C774        H778   1.082       .  S
N775        C786   1.358       .  A
N775       Co785   2.157       .  S
C779        N795   1.365       .  A
C779        C791   1.456       .  S
C779       C2945   1.502       .  S
Co781      Cl792   2.454       .  S
N782        C793   1.362       .  A
C783       C2970   1.459       .  S
Co785      Cl792   2.454       .  S
C793       C2953   1.487       .  S
C796        N814   1.355   1_655  A
C796        C833   1.451       .  S
C796       C2986   1.474       .  S
N797        N814   1.329       .  A
N797        N819   1.320       .  A
N797       Co834   2.103       .  S
C798        N823   1.339       .  A
C798        C836   1.451       .  S
C798        H843   1.080       .  S
H799        C840   1.081       .  S
C800        N824   1.352       .  A
C800        C804   1.479       .  S
C800        H829   1.082       .  S
Co801       N819   2.070       .  S
Co801       N809   2.096       .  S
Co801       N841   2.092       .  S
Co801       N817   2.079       .  S
Co801      Cl845   2.454       .  S
N802        C840   1.335       .  A
N802        N809   1.316       .  A
N802       Co803   2.040       .  S
Co803       N806   2.058       .  S
Co803       N823   2.074       .  S
Co803       N810   2.027       .  S
Co803      Cl845   2.450       .  S
C804        N842   1.339       .  A
C804       C2917   1.487       .  S
N805        N812   1.322       .  A
N805        N835   1.331       .  A
N805       Co838   2.145       .  S
N806        N824   1.324       .  A
N806        N842   1.323       .  A
N807        C836   1.349       .  A
N807        N817   1.324       .  A
H808        C833   1.082       .  S
N809        N830   1.324       .  A
N810        N828   1.321       .  A
N810        N815   1.316       .  A
C811        N815   1.332       .  A
C811        C839   1.483       .  S
C811       C2925   1.481       .  S
N812        C827   1.336       .  A
N812       Co834   2.045       .  S
C813        N841   1.342   1_655  A
C813        C816   1.462   1_655  S
C813        H847   1.081       .  S
C816        N837   1.341       .  A
C816       C2937   1.460   1_455  S
N817        N823   1.317       .  A
N818        C844   1.344       .  A
N818        N820   1.322       .  A
N818       Co834   2.087       .  S
N819        C833   1.336   1_455  A
N820        N848   1.333       .  A
N820       Co838   2.140       .  S
H821        C844   1.081       .  S
H822        C839   1.082       .  S
N824       Co838   2.149       .  S
N825        N837   1.319       .  A
N825        N841   1.318       .  A
N825       Co834   2.050       .  S
C826        N830   1.355       .  A
C826        C840   1.440       .  S
C826       C3006   1.458       .  S
C827        C846   1.445       .  S
C827        H831   1.082       .  S
N828        C839   1.356       .  A
N828       Co838   2.147       .  S
C832        N848   1.363       .  A
C832        C844   1.456       .  S
C832       C2933   1.498       .  S
Co834      Cl845   2.450       .  S
N835        C846   1.362       .  A
C836       C2929   1.464   1_565  S
Co838      Cl845   2.458       .  S
C846       C2921   1.478       .  S
C849        N867   1.343       .  A
C849        C886   1.463       .  S
C849       C3002   1.462       .  S
N850        N867   1.323       .  A
N850        N872   1.318       .  A
N850       Co887   2.064       .  S
C851        N876   1.342       .  A
C851        C889   1.463   1_545  S
C851        H896   1.082       .  S
H852        C893   1.081       .  S
C853        N877   1.352       .  A
C853        C857   1.478       .  S
C853        H882   1.082       .  S
Co854       N872   2.073       .  S
Co854       N862   2.106       .  S
Co854       N894   2.095       .  S
Co854       N870   2.062       .  S
Co854      Cl898   2.456       .  S
N855        C893   1.337       .  A
N855        N862   1.318       .  A
N855       Co856   2.066       .  S
Co856       N859   2.062       .  S
Co856       N876   2.080       .  S
Co856       N863   2.053       .  S
Co856      Cl898   2.444       .  S
C857        N895   1.341       .  A
C857       C2901   1.488       .  S
N858        N865   1.320       .  A
N858        N888   1.337       .  A
N858       Co891   2.155       .  S
N859        N877   1.324       .  A
N859        N895   1.324       .  A
N860        C889   1.342       .  A
N860        N870   1.319   1_565  A
H861        C886   1.081   1_565  S
N862        N883   1.329   1_545  A
N863        N881   1.324       .  A
N863        N868   1.322       .  A
C864        N868   1.339       .  A
C864        C892   1.476       .  S
C864       C2910   1.481       .  S
N865        C880   1.331       .  A
N865       Co887   2.047       .  S
C866        N894   1.344       .  A
C866        C869   1.460       .  S
C866        H900   1.080   1_545  S
C869        N890   1.344       .  A
C869       C2930   1.468       .  S
N870        N876   1.317       .  A
N871        C897   1.333       .  A
N871        N873   1.320       .  A
N871       Co887   2.052       .  S
N872        C886   1.335       .  A
N873        N901   1.339       .  A
N873       Co891   2.165       .  S
H874        C897   1.081       .  S
H875        C892   1.081       .  S
N877       Co891   2.146       .  S
N878        N890   1.321       .  A
N878        N894   1.316       .  A
N878       Co887   2.066       .  S
C879        N883   1.358   1_545  A
C879        C893   1.449       .  S
C879       C2958   1.478   1_545  S
C880        C899   1.446       .  S
C880        H884   1.080       .  S
N881        C892   1.350       .  A
N881       Co891   2.138       .  S
C885        N901   1.370       .  A
C885        C897   1.447       .  S
C885       C2905   1.502       .  S
Co887      Cl898   2.449       .  S
N888        C899   1.368       .  A
C889       C2913   1.460       .  S
Co891      Cl898   2.464       .  S
C899       C2898   1.495       .  S
C902        N920   1.359       .  A
C902        C939   1.439       .  S
C902       C2942   1.466       .  S
N903        N920   1.331       .  A
N903        N925   1.317       .  A
N903       Co940   2.110       .  S
C904        N929   1.349       .  A
C904        C942   1.470       .  S
C904        H949   1.082       .  S
H905        C946   1.082       .  S
C906        N930   1.352       .  A
C906        C910   1.477       .  S
C906        H935   1.082       .  S
Co907       N925   2.042       .  S
Co907       N915   2.072       .  S
Co907       N947   2.075       .  S
Co907       N923   2.037       .  S
Co907      Cl951   2.427       .  S
N908        C946   1.344       .  A
N908        N915   1.315       .  A
N908       Co909   2.065       .  S
Co909       N912   2.077       .  S
Co909       N929   2.098       .  S
Co909       N916   2.048       .  S
Co909      Cl951   2.472       .  S
C910        N948   1.344       .  A
C910       C2882   1.494       .  S
N911        N918   1.320       .  A
N911        N941   1.336       .  A
N911       Co944   2.160       .  S
N912        N930   1.326       .  A
N912        N948   1.326       .  A
N913        C942   1.339       .  A
N913        N923   1.312       .  A
H914        C939   1.079       .  S
N915        N936   1.318       .  A
N916        N934   1.322       .  A
N916        N921   1.319       .  A
C917        N921   1.339       .  A
C917        C945   1.481       .  S
C917       C2889   1.491       .  S
N918        C933   1.330       .  A
N918       Co940   2.035       .  S
C919        N947   1.337       .  A
C919        C922   1.463       .  S
C919        H953   1.081       .  S
C922        N943   1.345       .  A
C922       C2914   1.466       .  S
N923        N929   1.316       .  A
N924        C950   1.341       .  A
N924        N926   1.324       .  A
N924       Co940   2.085       .  S
N925        C939   1.330       .  A
N926        N954   1.335       .  A
N926       Co944   2.148       .  S
H927        C950   1.081       .  S
H928        C945   1.080       .  S
N930       Co944   2.151       .  S
N931        N943   1.322       .  A
N931        N947   1.314       .  A
N931       Co940   2.054       .  S
C932        N936   1.347       .  A
C932        C946   1.457       .  S
C932       C2974   1.468       .  S
C933        C952   1.442       .  S
C933        H937   1.081       .  S
N934        C945   1.357       .  A
N934       Co944   2.151       .  S
C938        N954   1.364       .  A
C938        C950   1.455       .  S
C938       C2893   1.499       .  S
Co940      Cl951   2.463       .  S
N941        C952   1.368       .  A
C942       C2938   1.465       .  S
Co944      Cl951   2.440       .  S
C952       C2885   1.490       .  S
C955        N973   1.370       .  A
C955        C992   1.437       .  S
C955       C2926   1.486       .  S
N956        N973   1.336       .  A
N956        N978   1.320       .  A
N956       Co993   2.167       .  S
C957        N982   1.340       .  A
C957        C995   1.466       .  S
C957       H1002   1.082       .  S
H958        C999   1.081       .  S
C959        N983   1.345       .  A
C959        C963   1.462       .  S
C959        H988   1.082       .  S
Co960       N978   2.018       .  S
Co960       N968   2.087       .  S
Co960      N1000   2.060       .  S
Co960       N976   2.038       .  S
Co960     Cl1004   2.454       .  S
N961        C999   1.335       .  A
N961        N968   1.316       .  A
N961       Co962   2.065       .  S
Co962       N965   2.080       .  S
Co962       N982   2.083       .  S
Co962       N969   2.053       .  S
Co962     Cl1004   2.433       .  S
C963       N1001   1.346       .  A
C963       C2873   1.466       .  S
N964        N971   1.325       .  A
N964        N994   1.328       .  A
N964       Co997   2.073       .  S
N965        N983   1.318       .  A
N965       N1001   1.321       .  A
N966        C995   1.337       .  A
N966        N976   1.318       .  A
H967        C992   1.081       .  S
N968        N989   1.327       .  A
N969        N987   1.316       .  A
N969        N974   1.317       .  A
C970        N974   1.341       .  A
C970        C998   1.463       .  S
C970       C2865   1.454       .  S
N971        C986   1.350       .  A
N971       Co993   2.148       .  S
C972       N1000   1.334       .  A
C972        C975   1.448       .  S
C972       H1006   1.081       .  S
C975        N996   1.368       .  A
C975       C2861   1.501       .  S
N976        N982   1.314       .  A
N977       C1003   1.356       .  A
N977        N979   1.323       .  A
N977       Co993   2.152       .  S
N978        C992   1.327       .  A
N979       N1007   1.323       .  A
N979       Co997   2.064       .  S
H980       C1003   1.081       .  S
H981        C998   1.082       .  S
N983       Co997   2.080       .  S
N984        N996   1.338       .  A
N984       N1000   1.320       .  A
N984       Co993   2.154       .  S
C985        N989   1.351       .  A
C985        C999   1.459       .  S
C985       C2877   1.474       .  S
C986       C1005   1.476       .  S
C986        H990   1.082       .  S
N987        C998   1.342       .  A
N987       Co997   2.080       .  S
C991       N1007   1.342       .  A
C991       C1003   1.481       .  S
C991       C2858   1.496       .  S
Co993     Cl1004   2.450       .  S
N994       C1005   1.345       .  A
C995       C2870   1.456       .  S
Co997     Cl1004   2.464       .  S
C1005      C2906   1.493       .  S
C1008      N1026   1.366       .  A
C1008      C1045   1.446       .  S
C1008      C2954   1.491       .  S
N1009      N1026   1.335       .  A
N1009      N1031   1.320       .  A
N1009     Co1046   2.137       .  S
C1010      N1035   1.331       .  A
C1010      C1048   1.438       .  S
C1010      H1055   1.082       .  S
H1011      C1052   1.081       .  S
C1012      N1036   1.343       .  A
C1012      C1016   1.459       .  S
C1012      H1041   1.081       .  S
Co1013     N1031   2.060       .  S
Co1013     N1021   2.063       .  S
Co1013     N1053   2.058       .  S
Co1013     N1029   2.105       .  S
Co1013    Cl1057   2.461       .  S
N1014      C1052   1.336       .  A
N1014      N1021   1.318       .  A
N1014     Co1015   2.076       .  S
Co1015     N1018   2.063       .  S
Co1015     N1035   2.052       .  S
Co1015     N1022   2.056       .  S
Co1015    Cl1057   2.440       .  S
C1016      N1054   1.347       .  A
C1016      C2845   1.466       .  S
N1017      N1024   1.324       .  A
N1017      N1047   1.318       .  A
N1017     Co1050   2.047       .  S
N1018      N1036   1.316       .  A
N1018      N1054   1.324       .  A
N1019      C1048   1.360       .  A
N1019      N1029   1.333       .  A
H1020      C1045   1.080       .  S
N1021      N1042   1.320       .  A
N1022      N1040   1.319       .  A
N1022      N1027   1.317       .  A
C1023      N1027   1.338       .  A
C1023      C1051   1.453       .  S
C1023      C2842   1.444       .  S
N1024      C1039   1.358       .  A
N1024     Co1046   2.159       .  S
C1025      N1053   1.338       .  A
C1025      C1028   1.452       .  S
C1025      H1059   1.081       .  S
C1028      N1049   1.362       .  A
C1028      C2837   1.487       .  S
N1029      N1035   1.316       .  A
N1030      C1056   1.348       .  A
N1030      N1032   1.322       .  A
N1030     Co1046   2.128       .  S
N1031      C1045   1.333       .  A
N1032      N1060   1.329       .  A
N1032     Co1050   2.082       .  S
H1033      C1056   1.081       .  S
H1034      C1051   1.080       .  S
N1036     Co1050   2.092       .  S
N1037      N1049   1.332       .  A
N1037      N1053   1.324       .  A
N1037     Co1046   2.153       .  S
C1038      N1042   1.341       .  A
C1038      C1052   1.468       .  S
C1038      C2853   1.460       .  S
C1039      C1058   1.485       .  S
C1039      H1043   1.081       .  S
N1040      C1051   1.339       .  A
N1040     Co1050   2.065       .  S
C1044      N1060   1.348       .  A
C1044      C1056   1.470       .  S
C1044      C2833   1.492       .  S
Co1046    Cl1057   2.448       .  S
N1047      C1058   1.337       .  A
C1048      C2850   1.472       .  S
Co1050    Cl1057   2.459       .  S
C1058      C2902   1.492       .  S
C1061      N1079   1.348       .  A
C1061      C1098   1.461       .  S
C1061      C2821   1.470       .  S
N1062      N1079   1.323       .  A
N1062      N1084   1.319       .  A
N1062     Co1099   2.081       .  S
C1063      N1088   1.351       .  A
C1063      C1101   1.475       .  S
C1063      H1108   1.081       .  S
H1064      C1105   1.081       .  S
C1065      N1089   1.324       .  A
C1065      C1069   1.434       .  S
C1065      H1094   1.079       .  S
Co1066     N1084   2.081       .  S
Co1066     N1074   2.081       .  S
Co1066     N1106   2.083       .  S
Co1066     N1082   2.067       .  S
Co1066    Cl1110   2.451       .  S
N1067      C1105   1.345       .  A
N1067      N1074   1.326       .  A
N1067     Co1068   2.134       .  S
Co1068     N1071   2.157       .  S
Co1068     N1088   2.138       .  S
Co1068     N1075   2.157       .  S
Co1068    Cl1110   2.458       .  S
C1069      N1107   1.369       .  A
C1069      C3189   1.480       .  S
N1070      N1077   1.316       .  A
N1070      N1100   1.321       .  A
N1070     Co1103   2.071       .  S
N1071      N1089   1.318       .  A
N1071      N1107   1.336       .  A
N1072      C1101   1.342       .  A
N1072      N1082   1.324       .  A
H1073      C1098   1.081       .  S
N1074      N1095   1.329       .  A
N1075      N1093   1.320       .  A
N1075      N1080   1.338       .  A
C1076      N1080   1.369       .  A
C1076      C1104   1.443       .  S
C1076      C2918   1.496       .  S
N1077      C1092   1.342       .  A
N1077     Co1099   2.079       .  S
C1078      N1106   1.340       .  A
C1078      C1081   1.464       .  S
C1078      H1112   1.081       .  S
C1081      N1102   1.344       .  A
C1081      C2830   1.462       .  S
N1082      N1088   1.324       .  A
N1083      C1109   1.338       .  A
N1083      N1085   1.315       .  A
N1083     Co1099   2.082       .  S
N1084      C1098   1.342       .  A
N1085      N1113   1.319       .  A
N1085     Co1103   2.033       .  S
H1086      C1109   1.081       .  S
H1087      C1104   1.080       .  S
N1089     Co1103   2.012       .  S
N1090      N1102   1.320       .  A
N1090      N1106   1.318       .  A
N1090     Co1099   2.063       .  S
C1091      N1095   1.347       .  A
C1091      C1105   1.470       .  S
C1091      C3258   1.487       .  S
C1092      C1111   1.459       .  S
C1092      H1096   1.081       .  S
N1093      C1104   1.331       .  A
N1093     Co1103   2.048       .  S
C1097      N1113   1.335       .  A
C1097      C1109   1.463       .  S
C1097      C2818   1.454       .  S
Co1099    Cl1110   2.450       .  S
N1100      C1111   1.345       .  A
C1101      C2997   1.487       .  S
Co1103    Cl1110   2.446       .  S
C1111      C2825   1.465       .  S
C1114      N1132   1.341       .  A
C1114      C1151   1.460       .  S
C1114      C2814   1.454       .  S
N1115      N1132   1.318       .  A
N1115      N1137   1.313       .  A
N1115     Co1152   2.056       .  S
C1116      N1141   1.353       .  A
C1116      C1154   1.480       .  S
C1116      H1161   1.081       .  S
H1117      C1158   1.082       .  S
C1118      N1142   1.322       .  A
C1118      C1122   1.436       .  S
C1118      H1147   1.080       .  S
Co1119     N1137   2.063       .  S
Co1119     N1127   2.062       .  S
Co1119     N1159   2.082       .  S
Co1119     N1135   2.040       .  S
Co1119    Cl1163   2.443       .  S
N1120      C1158   1.351       .  A
N1120      N1127   1.325       .  A
N1120     Co1121   2.141       .  S
Co1121     N1124   2.158       .  S
Co1121     N1141   2.148       .  S
Co1121     N1128   2.164       .  S
Co1121    Cl1163   2.447       .  S
C1122      N1160   1.370       .  A
C1122      C2922   1.487       .  S
N1123      N1130   1.314       .  A
N1123      N1153   1.323       .  A
N1123     Co1156   2.068       .  S
N1124      N1142   1.317       .  A
N1124      N1160   1.338       .  A
N1125      C1154   1.336       .  A
N1125      N1135   1.319       .  A
H1126      C1151   1.081       .  S
N1127      N1148   1.322       .  A
N1128      N1146   1.322       .  A
N1128      N1133   1.336       .  A
C1129      N1133   1.369       .  A
C1129      C1157   1.440       .  S
C1129      C2801   1.489       .  S
N1130      C1145   1.333       .  A
N1130     Co1152   2.052       .  S
C1131      N1159   1.340       .  A
C1131      C1134   1.464       .  S
C1131      H1165   1.081       .  S
C1134      N1155   1.342       .  A
C1134      C2810   1.457       .  S
N1135      N1141   1.324       .  A
N1136      C1162   1.333       .  A
N1136      N1138   1.313       .  A
N1136     Co1152   2.062       .  S
N1137      C1151   1.341       .  A
N1138      N1166   1.323       .  A
N1138     Co1156   2.051       .  S
H1139      C1162   1.081       .  S
H1140      C1157   1.079       .  S
N1142     Co1156   2.014       .  S
N1143      N1155   1.318       .  A
N1143      N1159   1.316       .  A
N1143     Co1152   2.053       .  S
C1144      N1148   1.340       .  A
C1144      C1158   1.475       .  S
C1144      C2982   1.482       .  S
C1145      C1164   1.445       .  S
C1145      H1149   1.080       .  S
N1146      C1157   1.329       .  A
N1146     Co1156   2.039       .  S
C1150      N1166   1.342       .  A
C1150      C1162   1.458       .  S
C1150      C2805   1.458       .  S
Co1152    Cl1163   2.443       .  S
N1153      C1164   1.349       .  A
C1154      C2798   1.482       .  S
Co1156    Cl1163   2.446       .  S
C1164      C2817   1.448       .  S
C1167      N1185   1.365       .  A
C1167      C1204   1.453       .  S
C1167      C3114   1.499       .  S
N1168      N1185   1.335       .  A
N1168      N1190   1.321       .  A
N1168     Co1205   2.146       .  S
C1169      N1194   1.343       .  A
C1169      C1207   1.459       .  S
C1169      H1214   1.082       .  S
H1170      C1211   1.081       .  S
C1171      N1195   1.339       .  A
C1171      C1175   1.458       .  S
C1171      H1200   1.081       .  S
Co1172     N1190   2.074       .  S
Co1172     N1180   2.040       .  S
Co1172     N1212   2.043       .  S
Co1172     N1188   2.078       .  S
Co1172    Cl1216   2.447       .  S
N1173      C1211   1.342       .  A
N1173      N1180   1.319       .  A
N1173     Co1174   2.098       .  S
Co1174     N1177   2.094       .  S
Co1174     N1194   2.087       .  S
Co1174     N1181   2.102       .  S
Co1174    Cl1216   2.465       .  S
C1175      N1213   1.354       .  A
C1175      C2786   1.471       .  S
N1176      N1183   1.325       .  A
N1176      N1206   1.326       .  A
N1176     Co1209   2.080       .  S
N1177      N1195   1.317       .  A
N1177      N1213   1.327       .  A
N1178      C1207   1.347       .  A
N1178      N1188   1.323       .  A
H1179      C1204   1.081       .  S
N1180      N1201   1.318       .  A
N1181      N1199   1.318       .  A
N1181      N1186   1.328       .  A
C1182      N1186   1.355       .  A
C1182      C1210   1.456       .  S
C1182      C2846   1.474       .  S
N1183      C1198   1.354       .  A
N1183     Co1205   2.149       .  S
C1184      N1212   1.332       .  A
C1184      C1187   1.445       .  S
C1184      H1218   1.081       .  S
C1187      N1208   1.369       .  A
C1187      C2994   1.495       .  S
N1188      N1194   1.317       .  A
N1189      C1215   1.349       .  A
N1189      N1191   1.324       .  A
N1189     Co1205   2.133       .  S
N1190      C1204   1.342       .  A
N1191      N1219   1.326       .  A
N1191     Co1209   2.074       .  S
H1192      C1215   1.081       .  S
H1193      C1210   1.081       .  S
N1195     Co1209   2.081       .  S
N1196      N1208   1.337       .  A
N1196      N1212   1.320       .  A
N1196     Co1205   2.161       .  S
C1197      N1201   1.335       .  A
C1197      C1211   1.468       .  S
C1197      C2789   1.458       .  S
C1198      C1217   1.477       .  S
C1198      H1202   1.081       .  S
N1199      C1210   1.339       .  A
N1199     Co1209   2.084       .  S
C1203      N1219   1.343       .  A
C1203      C1215   1.472       .  S
C1203      C2897   1.485       .  S
Co1205    Cl1216   2.468       .  S
N1206      C1217   1.345       .  A
C1207      C2793   1.465       .  S
Co1209    Cl1216   2.457       .  S
C1217      C3042   1.498       .  S
C1220      N1238   1.351       .  A
C1220      C1257   1.454       .  S
C1220      C2773   1.470       .  S
N1221      N1238   1.322       .  A
N1221      N1243   1.317       .  A
N1221     Co1258   2.086       .  S
C1222      N1247   1.356       .  A
C1222      C1260   1.481       .  S
C1222      H1267   1.082       .  S
H1223      C1264   1.082       .  S
C1224      N1248   1.335       .  A
C1224      C1228   1.447       .  S
C1224      H1253   1.081       .  S
Co1225     N1243   2.068       .  S
Co1225     N1233   2.071       .  S
Co1225     N1265   2.100       .  S
Co1225     N1241   2.041       .  S
Co1225    Cl1269   2.448       .  S
N1226      C1264   1.347       .  A
N1226      N1233   1.325       .  A
N1226     Co1227   2.129       .  S
Co1227     N1230   2.163       .  S
Co1227     N1247   2.147       .  S
Co1227     N1234   2.145       .  S
Co1227    Cl1269   2.464       .  S
C1228      N1266   1.367       .  A
C1228      C3030   1.494       .  S
N1229      N1236   1.318       .  A
N1229      N1259   1.328       .  A
N1229     Co1262   2.090       .  S
N1230      N1248   1.321       .  A
N1230      N1266   1.336       .  A
N1231      C1260   1.335       .  A
N1231      N1241   1.316       .  A
H1232      C1257   1.082       .  S
N1233      N1254   1.325       .  A
N1234      N1252   1.320       .  A
N1234      N1239   1.336       .  A
C1235      N1239   1.366       .  A
C1235      C1263   1.451       .  S
C1235      C2881   1.499       .  S
N1236      C1251   1.331       .  A
N1236     Co1258   2.056       .  S
C1237      N1265   1.343       .  A
C1237      C1240   1.465       .  S
C1237      H1271   1.085       .  S
C1240      N1261   1.351       .  A
C1240      C2781   1.473       .  S
N1241      N1247   1.324       .  A
N1242      C1268   1.342       .  A
N1242      N1244   1.318       .  A
N1242     Co1258   2.095       .  S
N1243      C1257   1.342       .  A
N1244      N1272   1.317       .  A
N1244     Co1262   2.039       .  S
H1245      C1268   1.081       .  S
H1246      C1263   1.081       .  S
N1248     Co1262   2.046       .  S
N1249      N1261   1.326       .  A
N1249      N1265   1.316       .  A
N1249     Co1258   2.076       .  S
C1250      N1254   1.343       .  A
C1250      C1264   1.470       .  S
C1250      C3138   1.480       .  S
C1251      C1270   1.443       .  S
C1251      H1255   1.081       .  S
N1252      C1263   1.338       .  A
N1252     Co1262   2.073       .  S
C1256      N1272   1.335       .  A
C1256      C1268   1.472       .  S
C1256      C2769   1.460       .  S
Co1258    Cl1269   2.452       .  S
N1259      C1270   1.355       .  A
C1260      C2978   1.483       .  S
Co1262    Cl1269   2.451       .  S
C1270      C2777   1.461       .  S
C1273      N1291   1.362       .  A
C1273      C1310   1.440       .  S
C1273      C3254   1.474       .  S
N1274      N1291   1.331       .  A
N1274      N1296   1.322       .  A
N1274     Co1311   2.141       .  S
C1275      N1300   1.340       .  A
C1275      C1313   1.466       .  S
C1275      H1320   1.080       .  S
H1276      C1317   1.082       .  S
C1277      N1301   1.339       .  A
C1277      C1281   1.449       .  S
C1277      H1306   1.082       .  S
Co1278     N1296   2.036       .  S
Co1278     N1286   2.091       .  S
Co1278     N1318   2.068       .  S
Co1278     N1294   2.053       .  S
Co1278    Cl1322   2.442       .  S
N1279      C1317   1.343       .  A
N1279      N1286   1.316       .  A
N1279     Co1280   2.088       .  S
Co1280     N1283   2.081       .  S
Co1280     N1300   2.082       .  S
Co1280     N1287   2.077       .  S
Co1280    Cl1322   2.447       .  S
C1281      N1319   1.352       .  A
C1281      C2753   1.463       .  S
N1282      N1289   1.323       .  A
N1282      N1312   1.318       .  A
N1282     Co1315   2.036       .  S
N1283      N1301   1.316       .  A
N1283      N1319   1.319       .  A
N1284      C1313   1.342       .  A
N1284      N1294   1.321       .  A
H1285      C1310   1.082       .  S
N1286      N1307   1.325       .  A
N1287      N1305   1.316       .  A
N1287      N1292   1.318       .  A
C1288      N1292   1.351       .  A
C1288      C1316   1.448       .  S
C1288      C2762   1.458       .  S
N1289      C1304   1.357       .  A
N1289     Co1311   2.159       .  S
C1290      N1318   1.336       .  A
C1290      C1293   1.450       .  S
C1290      H1324   1.081       .  S
C1293      N1314   1.363       .  A
C1293      C3110   1.489       .  S
N1294      N1300   1.315       .  A
N1295      C1321   1.354       .  A
N1295      N1297   1.321       .  A
N1295     Co1311   2.144       .  S
N1296      C1310   1.331       .  A
N1297      N1325   1.320       .  A
N1297     Co1315   2.039       .  S
H1298      C1321   1.082       .  S
H1299      C1316   1.081       .  S
N1301     Co1315   2.052       .  S
N1302      N1314   1.333       .  A
N1302      N1318   1.323       .  A
N1302     Co1311   2.140       .  S
C1303      N1307   1.352       .  A
C1303      C1317   1.464       .  S
C1303      C2758   1.472       .  S
C1304      C1323   1.486       .  S
C1304      H1308   1.082       .  S
N1305      C1316   1.337       .  A
N1305     Co1315   2.049       .  S
C1309      N1325   1.337       .  A
C1309      C1321   1.480       .  S
C1309      C3065   1.485       .  S
Co1311    Cl1322   2.462       .  S
N1312      C1323   1.334       .  A
C1313      C2765   1.466       .  S
Co1315    Cl1322   2.445       .  S
C1323      C3206   1.487       .  S
C1326      N1344   1.344       .  A
C1326      C1363   1.457       .  S
C1326      C2750   1.456       .  S
N1327      N1344   1.319       .  A
N1327      N1349   1.317       .  A
N1327     Co1364   2.067       .  S
C1328      N1353   1.353       .  A
C1328      C1366   1.479       .  S
C1328      H1373   1.082       .  S
H1329      C1370   1.081       .  S
C1330      N1354   1.326       .  A
C1330      C1334   1.437       .  S
C1330      H1359   1.080       .  S
Co1331     N1349   2.070       .  S
Co1331     N1339   2.060       .  S
Co1331     N1371   2.069       .  S
Co1331     N1347   2.055       .  S
Co1331    Cl1375   2.450       .  S
N1332      C1370   1.347       .  A
N1332      N1339   1.325       .  A
N1332     Co1333   2.136       .  S
Co1333     N1336   2.156       .  S
Co1333     N1353   2.145       .  S
Co1333     N1340   2.146       .  S
Co1333    Cl1375   2.458       .  S
C1334      N1372   1.367       .  A
C1334      C3046   1.480       .  S
N1335      N1342   1.315       .  A
N1335      N1365   1.326       .  A
N1335     Co1368   2.095       .  S
N1336      N1354   1.320       .  A
N1336      N1372   1.335       .  A
N1337      C1366   1.340       .  A
N1337      N1347   1.323       .  A
H1338      C1363   1.081       .  S
N1339      N1360   1.324       .  A
N1340      N1358   1.321       .  A
N1340      N1345   1.336       .  A
C1341      N1345   1.366       .  A
C1341      C1369   1.446       .  S
C1341      C2738   1.492       .  S
N1342      C1357   1.341       .  A
N1342     Co1364   2.074       .  S
C1343      N1371   1.339       .  A
C1343      C1346   1.460       .  S
C1343      H1377   1.082       .  S
C1346      N1367   1.343       .  A
C1346      C2741   1.454       .  S
N1347      N1353   1.323       .  A
N1348      C1374   1.332       .  A
N1348      N1350   1.313       .  A
N1348     Co1364   2.058       .  S
N1349      C1363   1.340       .  A
N1350      N1378   1.320       .  A
N1350     Co1368   2.046       .  S
H1351      C1374   1.081       .  S
H1352      C1369   1.080       .  S
N1354     Co1368   2.019       .  S
N1355      N1367   1.319       .  A
N1355      N1371   1.316       .  A
N1355     Co1364   2.061       .  S
C1356      N1360   1.341       .  A
C1356      C1370   1.472       .  S
C1356      C3098   1.478       .  S
C1357      C1376   1.458       .  S
C1357      H1361   1.081       .  S
N1358      C1369   1.333       .  A
N1358     Co1368   2.058       .  S
C1362      N1378   1.342       .  A
C1362      C1374   1.462       .  S
C1362      C2841   1.454       .  S
Co1364    Cl1375   2.447       .  S
N1365      C1376   1.353       .  A
C1366      C2745   1.487       .  S
Co1368    Cl1375   2.440       .  S
C1376      C2785   1.470       .  S
C1379      N1397   1.365       .  A
C1379      C1416   1.437       .  S
C1379      C3154   1.475       .  S
N1380      N1397   1.333       .  A
N1380      N1402   1.319       .  A
N1380     Co1417   2.148       .  S
C1381      N1406   1.336       .  A
C1381      C1419   1.461       .  S
C1381      H1426   1.082       .  S
H1382      C1423   1.081       .  S
C1383      N1407   1.342       .  A
C1383      C1387   1.460       .  S
C1383      H1412   1.081       .  S
Co1384     N1402   2.018       .  S
Co1384     N1392   2.056       .  S
Co1384     N1424   2.025       .  S
Co1384     N1400   2.055       .  S
Co1384    Cl1428   2.444       .  S
N1385      C1423   1.336       .  A
N1385      N1392   1.316       .  A
N1385     Co1386   2.071       .  S
Co1386     N1389   2.051       .  S
Co1386     N1406   2.065       .  S
Co1386     N1393   2.064       .  S
Co1386    Cl1428   2.439       .  S
C1387      N1425   1.337       .  A
C1387      C2761   1.451       .  S
N1388      N1395   1.325       .  A
N1388      N1418   1.325       .  A
N1388     Co1421   2.066       .  S
N1389      N1407   1.316       .  A
N1389      N1425   1.316       .  A
N1390      C1419   1.342       .  A
N1390      N1400   1.322       .  A
H1391      C1416   1.081       .  S
N1392      N1413   1.323       .  A
N1393      N1411   1.317       .  A
N1393      N1398   1.320       .  A
C1394      N1398   1.345       .  A
C1394      C1422   1.455       .  S
C1394      C2726   1.454       .  S
N1395      C1410   1.353       .  A
N1395     Co1417   2.155       .  S
C1396      N1424   1.324       .  A
C1396      C1399   1.436       .  S
C1396      H1430   1.080       .  S
C1399      N1420   1.370       .  A
C1399      C2729   1.484       .  S
N1400      N1406   1.313       .  A
N1401      C1427   1.354       .  A
N1401      N1403   1.323       .  A
N1401     Co1417   2.150       .  S
N1402      C1416   1.326       .  A
N1403      N1431   1.324       .  A
N1403     Co1421   2.056       .  S
H1404      C1427   1.081       .  S
H1405      C1422   1.080       .  S
N1407     Co1421   2.072       .  S
N1408      N1420   1.336       .  A
N1408      N1424   1.320       .  A
N1408     Co1417   2.161       .  S
C1409      N1413   1.345       .  A
C1409      C1423   1.448       .  S
C1409      C2733   1.451       .  S
C1410      C1429   1.480       .  S
C1410      H1414   1.081       .  S
N1411      C1422   1.338       .  A
N1411     Co1421   2.071       .  S
C1415      N1431   1.340       .  A
C1415      C1427   1.481       .  S
C1415      C2721   1.491       .  S
Co1417    Cl1428   2.451       .  S
N1418      C1429   1.343       .  A
C1419      C2866   1.460       .  S
Co1421    Cl1428   2.453       .  S
C1429      C3062   1.494       .  S
C1432      N1450   1.341       .  A
C1432      C1469   1.454       .  S
C1432      C2713   1.450       .  S
N1433      N1450   1.318       .  A
N1433      N1455   1.319       .  A
N1433     Co1470   2.061       .  S
C1434      N1459   1.351       .  A
C1434      C1472   1.474       .  S
C1434      H1479   1.082       .  S
H1435      C1476   1.081       .  S
C1436      N1460   1.335       .  A
C1436      C1440   1.446       .  S
C1436      H1465   1.081       .  S
Co1437     N1455   2.070       .  S
Co1437     N1445   2.071       .  S
Co1437     N1477   2.087       .  S
Co1437     N1453   2.073       .  S
Co1437    Cl1481   2.456       .  S
N1438      C1476   1.351       .  A
N1438      N1445   1.324       .  A
N1438     Co1439   2.145       .  S
Co1439     N1442   2.166       .  S
Co1439     N1459   2.143       .  S
Co1439     N1446   2.143       .  S
Co1439    Cl1481   2.461       .  S
C1440      N1478   1.369       .  A
C1440      C3058   1.499       .  S
N1441      N1448   1.315       .  A
N1441      N1471   1.322       .  A
N1441     Co1474   2.070       .  S
N1442      N1460   1.322       .  A
N1442      N1478   1.338       .  A
N1443      C1472   1.345       .  A
N1443      N1453   1.325       .  A
H1444      C1469   1.080       .  S
N1445      N1466   1.328       .  A
N1446      N1464   1.320       .  A
N1446      N1451   1.334       .  A
C1447      N1451   1.364       .  A
C1447      C1475   1.446       .  S
C1447      C2709   1.486       .  S
N1448      C1463   1.345       .  A
N1448     Co1470   2.096       .  S
C1449      N1477   1.340       .  A
C1449      C1452   1.461       .  S
C1449      H1483   1.081       .  S
C1452      N1473   1.354       .  A
C1452      C2701   1.473       .  S
N1453      N1459   1.325       .  A
N1454      C1480   1.336       .  A
N1454      N1456   1.318       .  A
N1454     Co1470   2.072       .  S
N1455      C1469   1.338       .  A
N1456      N1484   1.322       .  A
N1456     Co1474   2.068       .  S
H1457      C1480   1.082       .  S
H1458      C1475   1.081       .  S
N1460     Co1474   2.056       .  S
N1461      N1473   1.327       .  A
N1461      N1477   1.316       .  A
N1461     Co1470   2.094       .  S
C1462      N1466   1.342       .  A
C1462      C1476   1.479       .  S
C1462      C3078   1.493       .  S
C1463      C1482   1.463       .  S
C1463      H1467   1.081       .  S
N1464      C1475   1.334       .  A
N1464     Co1474   2.049       .  S
C1468      N1484   1.344       .  A
C1468      C1480   1.461       .  S
C1468      C2809   1.461       .  S
Co1470    Cl1481   2.458       .  S
N1471      C1482   1.347       .  A
C1472      C2705   1.491       .  S
Co1474    Cl1481   2.452       .  S
C1482      C2717   1.469       .  S
C1485      N1503   1.370       .  A
C1485      C1522   1.443       .  S
C1485      C2746   1.494       .  S
N1486      N1503   1.337       .  A
N1486      N1508   1.320       .  A
N1486     Co1523   2.161       .  S
C1487      N1512   1.332       .  A
C1487      C1525   1.460       .  S
C1487      H1532   1.081       .  S
H1488      C1529   1.081       .  S
C1489      N1513   1.339       .  A
C1489      C1493   1.460       .  S
C1489      H1518   1.080       .  S
Co1490     N1508   2.043       .  S
Co1490     N1498   2.056       .  S
Co1490     N1530   2.038       .  S
Co1490     N1506   2.063       .  S
Co1490    Cl1534   2.452       .  S
N1491      C1529   1.340       .  A
N1491      N1498   1.317       .  A
N1491     Co1492   2.089       .  S
Co1492     N1495   2.086       .  S
Co1492     N1512   2.072       .  S
Co1492     N1499   2.082       .  S
Co1492    Cl1534   2.445       .  S
C1493      N1531   1.352       .  A
C1493      C2693   1.471       .  S
N1494      N1501   1.323       .  A
N1494      N1524   1.323       .  A
N1494     Co1527   2.054       .  S
N1495      N1513   1.317       .  A
N1495      N1531   1.326       .  A
N1496      C1525   1.346       .  A
N1496      N1506   1.324       .  A
H1497      C1522   1.081       .  S
N1498      N1519   1.322       .  A
N1499      N1517   1.317       .  A
N1499      N1504   1.323       .  A
C1500      N1504   1.350       .  A
C1500      C1528   1.449       .  S
C1500      C2689   1.462       .  S
N1501      C1516   1.350       .  A
N1501     Co1523   2.140       .  S
C1502      N1530   1.330       .  A
C1502      C1505   1.445       .  S
C1502      H1536   1.081       .  S
C1505      N1526   1.365       .  A
C1505      C2682   1.487       .  S
N1506      N1512   1.317       .  A
N1507      C1533   1.352       .  A
N1507      N1509   1.324       .  A
N1507     Co1523   2.138       .  S
N1508      C1522   1.330       .  A
N1509      N1537   1.325       .  A
N1509     Co1527   2.075       .  S
H1510      C1533   1.081       .  S
H1511      C1528   1.081       .  S
N1513     Co1527   2.088       .  S
N1514      N1526   1.335       .  A
N1514      N1530   1.319       .  A
N1514     Co1523   2.145       .  S
C1515      N1519   1.341       .  A
C1515      C1529   1.467       .  S
C1515      C2697   1.467       .  S
C1516      C1535   1.476       .  S
C1516      H1520   1.082       .  S
N1517      C1528   1.339       .  A
N1517     Co1527   2.061       .  S
C1521      N1537   1.344       .  A
C1521      C1533   1.475       .  S
C1521      C2706   1.491       .  S
Co1523    Cl1534   2.456       .  S
N1524      C1535   1.339       .  A
C1525      C2686   1.462       .  S
Co1527    Cl1534   2.455       .  S
C1535      C2678   1.483       .  S
C1538      N1556   1.355       .  A
C1538      C1575   1.464       .  S
C1538      C2782   1.475       .  S
N1539      N1556   1.327       .  A
N1539      N1561   1.317       .  A
N1539     Co1576   2.094       .  S
C1540      N1565   1.351       .  A
C1540      C1578   1.474       .  S
C1540      H1585   1.082       .  S
H1541      C1582   1.082       .  S
C1542      N1566   1.323       .  A
C1542      C1546   1.432       .  S
C1542      H1571   1.079       .  S
Co1543     N1561   2.095       .  S
Co1543     N1551   2.073       .  S
Co1543     N1583   2.088       .  S
Co1543     N1559   2.082       .  S
Co1543    Cl1587   2.459       .  S
N1544      C1582   1.351       .  A
N1544      N1551   1.326       .  A
N1544     Co1545   2.146       .  S
Co1545     N1548   2.173       .  S
Co1545     N1565   2.142       .  S
Co1545     N1552   2.150       .  S
Co1545    Cl1587   2.456       .  S
C1546      N1584   1.374       .  A
C1546      C2950   1.488       .  S
N1547      N1554   1.315       .  A
N1547      N1577   1.323       .  A
N1547     Co1580   2.066       .  S
N1548      N1566   1.318       .  A
N1548      N1584   1.339       .  A
N1549      C1578   1.347       .  A
N1549      N1559   1.328       .  A
H1550      C1575   1.081       .  S
N1551      N1572   1.325       .  A
N1552      N1570   1.320       .  A
N1552      N1557   1.335       .  A
C1553      N1557   1.366       .  A
C1553      C1581   1.445       .  S
C1553      C2658   1.489       .  S
N1554      C1569   1.331       .  A
N1554     Co1576   2.061       .  S
C1555      N1583   1.345       .  A
C1555      C1558   1.466       .  S
C1555      H1589   1.082       .  S
C1558      N1579   1.336       .  A
C1558      C2665   1.454       .  S
N1559      N1565   1.325       .  A
N1560      C1586   1.339       .  A
N1560      N1562   1.315       .  A
N1560     Co1576   2.089       .  S
N1561      C1575   1.342       .  A
N1562      N1590   1.320       .  A
N1562     Co1580   2.038       .  S
H1563      C1586   1.081       .  S
H1564      C1581   1.080       .  S
N1566     Co1580   2.008       .  S
N1567      N1579   1.315       .  A
N1567      N1583   1.318       .  A
N1567     Co1576   2.043       .  S
C1568      N1572   1.342       .  A
C1568      C1582   1.477       .  S
C1568      C2966   1.489       .  S
C1569      C1588   1.463       .  S
C1569      H1573   1.081       .  S
N1570      C1581   1.332       .  A
N1570     Co1580   2.045       .  S
C1574      N1590   1.340       .  A
C1574      C1586   1.463       .  S
C1574      C2661   1.460       .  S
Co1576    Cl1587   2.442       .  S
N1577      C1588   1.345       .  A
C1578      C2669   1.495       .  S
Co1580    Cl1587   2.450       .  S
C1588      C2673   1.463       .  S
C1591      N1609   1.366       .  A
C1591      C1628   1.452       .  S
C1591      C2834   1.500       .  S
N1592      N1609   1.336       .  A
N1592      N1614   1.322       .  A
N1592     Co1629   2.150       .  S
C1593      N1618   1.328       .  A
C1593      C1631   1.452       .  S
C1593      H1638   1.080       .  S
H1594      C1635   1.079       .  S
C1595      N1619   1.348       .  A
C1595      C1599   1.470       .  S
C1595      H1624   1.082       .  S
Co1596     N1614   2.070       .  S
Co1596     N1604   2.072       .  S
Co1596     N1636   2.044       .  S
Co1596     N1612   2.093       .  S
Co1596    Cl1640   2.458       .  S
N1597      C1635   1.343       .  A
N1597      N1604   1.315       .  A
N1597     Co1598   2.088       .  S
Co1598     N1601   2.044       .  S
Co1598     N1618   2.042       .  S
Co1598     N1605   2.088       .  S
Co1598    Cl1640   2.436       .  S
C1599      N1637   1.336       .  A
C1599      C2698   1.459       .  S
N1600      N1607   1.324       .  A
N1600      N1630   1.324       .  A
N1600     Co1633   2.057       .  S
N1601      N1619   1.318       .  A
N1601      N1637   1.315       .  A
N1602      C1631   1.354       .  A
N1602      N1612   1.328       .  A
H1603      C1628   1.080       .  S
N1604      N1625   1.323       .  A
N1605      N1623   1.317       .  A
N1605      N1610   1.322       .  A
C1606      N1610   1.352       .  A
C1606      C1634   1.453       .  S
C1606      C2653   1.470       .  S
N1607      C1622   1.351       .  A
N1607     Co1629   2.146       .  S
C1608      N1636   1.332       .  A
C1608      C1611   1.444       .  S
C1608      H1642   1.080       .  S
C1611      N1632   1.368       .  A
C1611      C2650   1.491       .  S
N1612      N1618   1.315       .  A
N1613      C1639   1.354       .  A
N1613      N1615   1.324       .  A
N1613     Co1629   2.144       .  S
N1614      C1628   1.336       .  A
N1615      N1643   1.325       .  A
N1615     Co1633   2.078       .  S
H1616      C1639   1.082       .  S
H1617      C1634   1.082       .  S
N1619     Co1633   2.099       .  S
N1620      N1632   1.336       .  A
N1620      N1636   1.321       .  A
N1620     Co1629   2.158       .  S
C1621      N1625   1.348       .  A
C1621      C1635   1.460       .  S
C1621      C2641   1.470       .  S
C1622      C1641   1.476       .  S
C1622      H1626   1.081       .  S
N1623      C1634   1.340       .  A
N1623     Co1633   2.064       .  S
C1627      N1643   1.345       .  A
C1627      C1639   1.478       .  S
C1627      C2670   1.497       .  S
Co1629    Cl1640   2.454       .  S
N1630      C1641   1.341       .  A
C1631      C2645   1.467       .  S
Co1633    Cl1640   2.464       .  S
C1641      C2737   1.486       .  S
C1644      N1662   1.334       .  A
C1644      C1681   1.466       .  S
C1644      C2638   1.457       .  S
N1645      N1662   1.314       .  A
N1645      N1667   1.317       .  A
N1645     Co1682   2.048       .  S
C1646      N1671   1.357       .  A
C1646      C1684   1.484       .  S
C1646      H1691   1.081       .  S
H1647      C1688   1.081       .  S
C1648      N1672   1.333       .  A
C1648      C1652   1.444       .  S
C1648      H1677   1.081       .  S
Co1649     N1667   2.088       .  S
Co1649     N1657   2.085       .  S
Co1649     N1689   2.088       .  S
Co1649     N1665   2.067       .  S
Co1649    Cl1693   2.471       .  S
N1650      C1688   1.354       .  A
N1650      N1657   1.326       .  A
N1650     Co1651   2.162       .  S
Co1651     N1654   2.158       .  S
Co1651     N1671   2.160       .  S
Co1651     N1658   2.160       .  S
Co1651    Cl1693   2.441       .  S
C1652      N1690   1.365       .  A
C1652      C3210   1.484       .  S
N1653      N1660   1.316       .  A
N1653      N1683   1.328       .  A
N1653     Co1686   2.082       .  S
N1654      N1672   1.322       .  A
N1654      N1690   1.334       .  A
N1655      C1684   1.342       .  A
N1655      N1665   1.326       .  A
H1656      C1681   1.081       .  S
N1657      N1678   1.330       .  A
N1658      N1676   1.321       .  A
N1658      N1663   1.338       .  A
C1659      N1663   1.370       .  A
C1659      C1687   1.441       .  S
C1659      C2630   1.491       .  S
N1660      C1675   1.329       .  A
N1660     Co1682   2.048       .  S
C1661      N1689   1.343       .  A
C1661      C1664   1.466       .  S
C1661      H1695   1.081       .  S
C1664      N1685   1.337       .  A
C1664      C2869   1.452       .  S
N1665      N1671   1.323       .  A
N1666      C1692   1.330       .  A
N1666      N1668   1.312       .  A
N1666     Co1682   2.048       .  S
N1667      C1681   1.348       .  A
N1668      N1696   1.325       .  A
N1668     Co1686   2.072       .  S
H1669      C1692   1.081       .  S
H1670      C1687   1.080       .  S
N1672     Co1686   2.038       .  S
N1673      N1685   1.315       .  A
N1673      N1689   1.315       .  A
N1673     Co1682   2.036       .  S
C1674      N1678   1.348       .  A
C1674      C1688   1.479       .  S
C1674      C3298   1.505       .  S
C1675      C1694   1.437       .  S
C1675      H1679   1.081       .  S
N1676      C1687   1.326       .  A
N1676     Co1686   2.038       .  S
C1680      N1696   1.349       .  A
C1680      C1692   1.457       .  S
C1680      C2725   1.462       .  S
Co1682    Cl1693   2.426       .  S
N1683      C1694   1.353       .  A
C1684      C2634   1.502       .  S
Co1686    Cl1693   2.460       .  S
C1694      C2754   1.453       .  S
C1697      N1715   1.365       .  A
C1697      C1734   1.449       .  S
C1697      C3242   1.492       .  S
N1698      N1715   1.335       .  A
N1698      N1720   1.324       .  A
N1698     Co1735   2.153       .  S
C1699      N1724   1.342       .  A
C1699      C1737   1.462       .  S
C1699      H1744   1.081       .  S
H1700      C1741   1.082       .  S
C1701      N1725   1.338       .  A
C1701      C1705   1.452       .  S
C1701      H1730   1.081       .  S
Co1702     N1720   2.064       .  S
Co1702     N1710   2.080       .  S
Co1702     N1742   2.063       .  S
Co1702     N1718   2.089       .  S
Co1702    Cl1746   2.453       .  S
N1703      C1741   1.336       .  A
N1703      N1710   1.317       .  A
N1703     Co1704   2.064       .  S
Co1704     N1707   2.084       .  S
Co1704     N1724   2.086       .  S
Co1704     N1711   2.061       .  S
Co1704    Cl1746   2.456       .  S
C1705      N1743   1.349       .  A
C1705      C2826   1.464       .  S
N1706      N1713   1.323       .  A
N1706      N1736   1.325       .  A
N1706     Co1739   2.071       .  S
N1707      N1725   1.318       .  A
N1707      N1743   1.324       .  A
N1708      C1737   1.354       .  A
N1708      N1718   1.326       .  A
H1709      C1734   1.081       .  S
N1710      N1731   1.324       .  A
N1711      N1729   1.317       .  A
N1711      N1716   1.317       .  A
C1712      N1716   1.341       .  A
C1712      C1740   1.457       .  S
C1712      C2806   1.449       .  S
N1713      C1728   1.355       .  A
N1713     Co1735   2.152       .  S
C1714      N1742   1.337       .  A
C1714      C1717   1.449       .  S
C1714      H1748   1.081       .  S
C1717      N1738   1.360       .  A
C1717      C2681   1.481       .  S
N1718      N1724   1.315       .  A
N1719      C1745   1.357       .  A
N1719      N1721   1.323       .  A
N1719     Co1735   2.163       .  S
N1720      C1734   1.337       .  A
N1721      N1749   1.326       .  A
N1721     Co1739   2.066       .  S
H1722      C1745   1.082       .  S
H1723      C1740   1.082       .  S
N1725     Co1739   2.072       .  S
N1726      N1738   1.330       .  A
N1726      N1742   1.323       .  A
N1726     Co1735   2.136       .  S
C1727      N1731   1.350       .  A
C1727      C1741   1.453       .  S
C1727      C2625   1.463       .  S
C1728      C1747   1.481       .  S
C1728      H1732   1.082       .  S
N1729      C1740   1.341       .  A
N1729     Co1739   2.071       .  S
C1733      N1749   1.343       .  A
C1733      C1745   1.484       .  S
C1733      C2621   1.502       .  S
Co1735    Cl1746   2.452       .  S
N1736      C1747   1.343       .  A
C1737      C2702   1.471       .  S
Co1739    Cl1746   2.464       .  S
C1747      C3186   1.499       .  S
C1750      N1768   1.368       .  A
C1750      C1787   1.447       .  S
C1750      C3222   1.498       .  S
N1751      N1768   1.337       .  A
N1751      N1773   1.321       .  A
N1751     Co1788   2.157       .  S
C1752      N1777   1.333       .  A
C1752      C1790   1.460       .  S
C1752      H1797   1.082       .  S
H1753      C1794   1.082       .  S
C1754      N1778   1.344       .  A
C1754      C1758   1.470       .  S
C1754      H1783   1.082       .  S
Co1755     N1773   2.055       .  S
Co1755     N1763   2.040       .  S
Co1755     N1795   2.020       .  S
Co1755     N1771   2.069       .  S
Co1755    Cl1799   2.448       .  S
N1756      C1794   1.342       .  A
N1756      N1763   1.315       .  A
N1756     Co1757   2.094       .  S
Co1757     N1760   2.050       .  S
Co1757     N1777   2.064       .  S
Co1757     N1764   2.105       .  S
Co1757    Cl1799   2.441       .  S
C1758      N1796   1.340       .  A
C1758      C2613   1.459       .  S
N1759      N1766   1.322       .  A
N1759      N1789   1.318       .  A
N1759     Co1792   2.037       .  S
N1760      N1778   1.318       .  A
N1760      N1796   1.317       .  A
N1761      C1790   1.344       .  A
N1761      N1771   1.322       .  A
H1762      C1787   1.080       .  S
N1763      N1784   1.321       .  A
N1764      N1782   1.316       .  A
N1764      N1769   1.327       .  A
C1765      N1769   1.357       .  A
C1765      C1793   1.449       .  S
C1765      C2849   1.479       .  S
N1766      C1781   1.353       .  A
N1766     Co1788   2.140       .  S
C1767      N1795   1.326       .  A
C1767      C1770   1.439       .  S
C1767      H1801   1.080       .  S
C1770      N1791   1.371       .  A
C1770      C2677   1.493       .  S
N1771      N1777   1.318       .  A
N1772      C1798   1.349       .  A
N1772      N1774   1.326       .  A
N1772     Co1788   2.135       .  S
N1773      C1787   1.332       .  A
N1774      N1802   1.325       .  A
N1774     Co1792   2.077       .  S
H1775      C1798   1.081       .  S
H1776      C1793   1.082       .  S
N1778     Co1792   2.098       .  S
N1779      N1791   1.339       .  A
N1779      N1795   1.317       .  A
N1779     Co1788   2.161       .  S
C1780      N1784   1.338       .  A
C1780      C1794   1.467       .  S
C1780      C2617   1.463       .  S
C1781      C1800   1.478       .  S
C1781      H1785   1.082       .  S
N1782      C1793   1.339       .  A
N1782     Co1792   2.054       .  S
C1786      N1802   1.344       .  A
C1786      C1798   1.473       .  S
C1786      C2610   1.486       .  S
Co1788    Cl1799   2.458       .  S
N1789      C1800   1.336       .  A
C1790      C2742   1.459       .  S
Co1792    Cl1799   2.448       .  S
C1800      C3202   1.479       .  S
C1803      N1821   1.351       .  A
C1803      C1840   1.449       .  S
C1803      C2601   1.463       .  S
N1804      N1821   1.321       .  A
N1804      N1826   1.318       .  A
N1804     Co1841   2.083       .  S
C1805      N1830   1.354       .  A
C1805      C1843   1.478       .  S
C1805      H1850   1.081       .  S
H1806      C1847   1.081       .  S
C1807      N1831   1.341       .  A
C1807      C1811   1.452       .  S
C1807      H1836   1.081       .  S
Co1808     N1826   2.059       .  S
Co1808     N1816   2.078       .  S
Co1808     N1848   2.088       .  S
Co1808     N1824   2.057       .  S
Co1808    Cl1852   2.453       .  S
N1809      C1847   1.349       .  A
N1809      N1816   1.324       .  A
N1809     Co1810   2.135       .  S
Co1810     N1813   2.160       .  S
Co1810     N1830   2.143       .  S
Co1810     N1817   2.138       .  S
Co1810    Cl1852   2.461       .  S
C1811      N1849   1.368       .  A
C1811      C2633   1.504       .  S
N1812      N1819   1.318       .  A
N1812      N1842   1.322       .  A
N1812     Co1845   2.061       .  S
N1813      N1831   1.321       .  A
N1813      N1849   1.337       .  A
N1814      C1843   1.341       .  A
N1814      N1824   1.321       .  A
H1815      C1840   1.081       .  S
N1816      N1837   1.328       .  A
N1817      N1835   1.321       .  A
N1817      N1822   1.333       .  A
C1818      N1822   1.362       .  A
C1818      C1846   1.450       .  S
C1818      C2838   1.488       .  S
N1819      C1834   1.339       .  A
N1819     Co1841   2.084       .  S
C1820      N1848   1.341       .  A
C1820      C1823   1.458       .  S
C1820      H1854   1.081       .  S
C1823      N1844   1.350       .  A
C1823      C2694   1.466       .  S
N1824      N1830   1.323       .  A
N1825      C1851   1.343       .  A
N1825      N1827   1.318       .  A
N1825     Co1841   2.089       .  S
N1826      C1840   1.338       .  A
N1827      N1855   1.322       .  A
N1827     Co1845   2.080       .  S
H1828      C1851   1.081       .  S
H1829      C1846   1.080       .  S
N1831     Co1845   2.070       .  S
N1832      N1844   1.325       .  A
N1832      N1848   1.318       .  A
N1832     Co1841   2.084       .  S
C1833      N1837   1.346       .  A
C1833      C1847   1.473       .  S
C1833      C2862   1.491       .  S
C1834      C1853   1.463       .  S
C1834      H1838   1.081       .  S
N1835      C1846   1.336       .  A
N1835     Co1845   2.061       .  S
C1839      N1855   1.347       .  A
C1839      C1851   1.459       .  S
C1839      C2642   1.466       .  S
Co1841    Cl1852   2.457       .  S
N1842      C1853   1.343       .  A
C1843      C2609   1.489       .  S
Co1845    Cl1852   2.454       .  S
C1853      C2605   1.465       .  S
C1856      N1874   1.371       .  A
C1856      C1893   1.446       .  S
C1856      C3286   1.501       .  S
N1857      N1874   1.339       .  A
N1857      N1879   1.321       .  A
N1857     Co1894   2.170       .  S
C1858      N1883   1.333       .  A
C1858      C1896   1.440       .  S
C1858      H1903   1.080       .  S
H1859      C1900   1.082       .  S
C1860      N1884   1.340       .  A
C1860      C1864   1.449       .  S
C1860      H1889   1.081       .  S
Co1861     N1879   2.045       .  S
Co1861     N1869   2.103       .  S
Co1861     N1901   2.084       .  S
Co1861     N1877   2.065       .  S
Co1861    Cl1905   2.461       .  S
N1862      C1900   1.330       .  A
N1862      N1869   1.316       .  A
N1862     Co1863   2.038       .  S
Co1863     N1866   2.069       .  S
Co1863     N1883   2.067       .  S
Co1863     N1870   2.039       .  S
Co1863    Cl1905   2.428       .  S
C1864      N1902   1.350       .  A
C1864      C2597   1.460       .  S
N1865      N1872   1.325       .  A
N1865      N1895   1.321       .  A
N1865     Co1898   2.058       .  S
N1866      N1884   1.314       .  A
N1866      N1902   1.320       .  A
N1867      C1896   1.348       .  A
N1867      N1877   1.326       .  A
H1868      C1893   1.081       .  S
N1869      N1890   1.327       .  A
N1870      N1888   1.316       .  A
N1870      N1875   1.314       .  A
C1871      N1875   1.332       .  A
C1871      C1899   1.466       .  S
C1871      C2770   1.451       .  S
N1872      C1887   1.354       .  A
N1872     Co1894   2.150       .  S
C1873      N1901   1.343       .  A
C1873      C1876   1.456       .  S
C1873      H1907   1.081       .  S
C1876      N1897   1.365       .  A
C1876      C2946   1.502       .  S
N1877      N1883   1.317       .  A
N1878      C1904   1.356       .  A
N1878      N1880   1.322       .  A
N1878     Co1894   2.159       .  S
N1879      C1893   1.331       .  A
N1880      N1908   1.319       .  A
N1880     Co1898   2.033       .  S
H1881      C1904   1.081       .  S
H1882      C1899   1.081       .  S
N1884     Co1898   2.057       .  S
N1885      N1897   1.335       .  A
N1885      N1901   1.323       .  A
N1885     Co1894   2.152       .  S
C1886      N1890   1.356       .  A
C1886      C1900   1.442       .  S
C1886      C2593   1.459       .  S
C1887      C1906   1.480       .  S
C1887      H1891   1.081       .  S
N1888      C1899   1.347       .  A
N1888     Co1898   2.086       .  S
C1892      N1908   1.335       .  A
C1892      C1904   1.483       .  S
C1892      C2886   1.486       .  S
Co1894    Cl1905   2.449       .  S
N1895      C1906   1.339       .  A
C1896      C2674   1.452       .  S
Co1898    Cl1905   2.461       .  S
C1906      C3174   1.488       .  S
C1909      N1927   1.363       .  A
C1909      C1946   1.455       .  S
C1909      C2857   1.495       .  S
N1910      N1927   1.333       .  A
N1910      N1932   1.325       .  A
N1910     Co1947   2.149       .  S
C1911      N1936   1.335       .  A
C1911      C1949   1.451       .  S
C1911      H1956   1.083       .  S
H1912      C1953   1.081       .  S
C1913      N1937   1.342       .  A
C1913      C1917   1.458       .  S
C1913      H1942   1.081       .  S
Co1914     N1932   2.080       .  S
Co1914     N1922   2.082       .  S
Co1914     N1954   2.051       .  S
Co1914     N1930   2.091       .  S
Co1914    Cl1958   2.452       .  S
N1915      C1953   1.332       .  A
N1915      N1922   1.316       .  A
N1915     Co1916   2.050       .  S
Co1916     N1919   2.051       .  S
Co1916     N1936   2.051       .  S
Co1916     N1923   2.060       .  S
Co1916    Cl1958   2.426       .  S
C1917      N1955   1.338       .  A
C1917      C2589   1.446       .  S
N1918      N1925   1.321       .  A
N1918      N1948   1.316       .  A
N1918     Co1951   2.020       .  S
N1919      N1937   1.315       .  A
N1919      N1955   1.316       .  A
N1920      C1949   1.353       .  A
N1920      N1930   1.323       .  A
H1921      C1946   1.082       .  S
N1922      N1943   1.326       .  A
N1923      N1941   1.312       .  A
N1923      N1928   1.316       .  A
C1924      N1928   1.349       .  A
C1924      C1952   1.449       .  S
C1924      C2585   1.456       .  S
N1925      C1940   1.354       .  A
N1925     Co1947   2.148       .  S
C1926      N1954   1.334       .  A
C1926      C1929   1.447       .  S
C1926      H1960   1.081       .  S
C1929      N1950   1.363       .  A
C1929      C2710   1.485       .  S
N1930      N1936   1.317       .  A
N1931      C1957   1.357       .  A
N1931      N1933   1.323       .  A
N1931     Co1947   2.154       .  S
N1932      C1946   1.342       .  A
N1933      N1961   1.315       .  A
N1933     Co1951   2.038       .  S
H1934      C1957   1.082       .  S
H1935      C1952   1.081       .  S
N1937     Co1951   2.066       .  S
N1938      N1950   1.333       .  A
N1938      N1954   1.321       .  A
N1938     Co1947   2.140       .  S
C1939      N1943   1.353       .  A
C1939      C1953   1.442       .  S
C1939      C2602   1.458       .  S
C1940      C1959   1.480       .  S
C1940      H1944   1.081       .  S
N1941      C1952   1.341       .  A
N1941     Co1951   2.052       .  S
C1945      N1961   1.333       .  A
C1945      C1957   1.485       .  S
C1945      C2797   1.485       .  S
Co1947    Cl1958   2.446       .  S
N1948      C1959   1.332       .  A
C1949      C2690   1.462       .  S
Co1951    Cl1958   2.459       .  S
C1959      C2730   1.476       .  S
C1962      N1980   1.352       .  A
C1962      C1999   1.447       .  S
C1962      C2581   1.462       .  S
N1963      N1980   1.321       .  A
N1963      N1985   1.314       .  A
N1963     Co2000   2.082       .  S
C1964      N1989   1.352       .  A
C1964      C2002   1.478       .  S
C1964      H2009   1.082       .  S
H1965      C2006   1.082       .  S
C1966      N1990   1.326       .  A
C1966      C1970   1.437       .  S
C1966      H1995   1.080       .  S
Co1967     N1985   2.047       .  S
Co1967     N1975   2.064       .  S
Co1967     N2007   2.089       .  S
Co1967     N1983   2.024       .  S
Co1967    Cl2011   2.450       .  S
N1968      C2006   1.355       .  A
N1968      N1975   1.325       .  A
N1968     Co1969   2.147       .  S
Co1969     N1972   2.146       .  S
Co1969     N1989   2.145       .  S
Co1969     N1976   2.152       .  S
Co1969    Cl2011   2.459       .  S
C1970      N2008   1.367       .  A
C1970      C3170   1.479       .  S
N1971      N1978   1.316       .  A
N1971      N2001   1.324       .  A
N1971     Co2004   2.082       .  S
N1972      N1990   1.319       .  A
N1972      N2008   1.335       .  A
N1973      C2002   1.333       .  A
N1973      N1983   1.317       .  A
H1974      C1999   1.082       .  S
N1975      N1996   1.321       .  A
N1976      N1994   1.323       .  A
N1976      N1981   1.335       .  A
C1977      N1981   1.366       .  A
C1977      C2005   1.446       .  S
C1977      C3026   1.489       .  S
N1978      C1993   1.331       .  A
N1978     Co2000   2.047       .  S
C1979      N2007   1.344       .  A
C1979      C1982   1.467       .  S
C1979      H2013   1.082       .  S
C1982      N2003   1.339       .  A
C1982      C2577   1.458       .  S
N1983      N1989   1.323       .  A
N1984      C2010   1.338       .  A
N1984      N1986   1.315       .  A
N1984     Co2000   2.083       .  S
N1985      C1999   1.339       .  A
N1986      N2014   1.323       .  A
N1986     Co2004   2.051       .  S
H1987      C2010   1.081       .  S
H1988      C2005   1.080       .  S
N1990     Co2004   2.022       .  S
N1991      N2003   1.316       .  A
N1991      N2007   1.317       .  A
N1991     Co2000   2.049       .  S
C1992      N1996   1.339       .  A
C1992      C2006   1.480       .  S
C1992      C3238   1.489       .  S
C1993      C2012   1.447       .  S
C1993      H1997   1.082       .  S
N1994      C2005   1.334       .  A
N1994     Co2004   2.059       .  S
C1998      N2014   1.344       .  A
C1998      C2010   1.465       .  S
C1998      C2778   1.468       .  S
Co2000    Cl2011   2.433       .  S
N2001      C2012   1.352       .  A
C2002      C3094   1.473       .  S
Co2004    Cl2011   2.442       .  S
C2012      C2598   1.456       .  S
C2015      N2033   1.369       .  A
C2015      C2052   1.445       .  S
C2015      C2722   1.498       .  S
N2016      N2033   1.338       .  A
N2016      N2038   1.321       .  A
N2016     Co2053   2.160       .  S
C2017      N2042   1.339       .  A
C2017      C2055   1.455       .  S
C2017      H2062   1.081       .  S
H2018      C2059   1.082       .  S
C2019      N2043   1.342       .  A
C2019      C2023   1.466       .  S
C2019      H2048   1.082       .  S
Co2020     N2038   2.056       .  S
Co2020     N2028   2.048       .  S
Co2020     N2060   2.025       .  S
Co2020     N2036   2.083       .  S
Co2020    Cl2064   2.444       .  S
N2021      C2059   1.336       .  A
N2021      N2028   1.315       .  A
N2021     Co2022   2.071       .  S
Co2022     N2025   2.061       .  S
Co2022     N2042   2.070       .  S
Co2022     N2029   2.082       .  S
Co2022    Cl2064   2.449       .  S
C2023      N2061   1.342       .  A
C2023      C2606   1.462       .  S
N2024      N2031   1.324       .  A
N2024      N2054   1.324       .  A
N2024     Co2057   2.058       .  S
N2025      N2043   1.317       .  A
N2025      N2061   1.319       .  A
N2026      C2055   1.349       .  A
N2026      N2036   1.324       .  A
H2027      C2052   1.080       .  S
N2028      N2049   1.320       .  A
N2029      N2047   1.318       .  A
N2029      N2034   1.322       .  A
C2030      N2034   1.349       .  A
C2030      C2058   1.454       .  S
C2030      C2646   1.460       .  S
N2031      C2046   1.348       .  A
N2031     Co2053   2.135       .  S
C2032      N2060   1.326       .  A
C2032      C2035   1.441       .  S
C2032      H2066   1.081       .  S
C2035      N2056   1.367       .  A
C2035      C2573   1.485       .  S
N2036      N2042   1.316       .  A
N2037      C2063   1.350       .  A
N2037      N2039   1.325       .  A
N2037     Co2053   2.139       .  S
N2038      C2052   1.334       .  A
N2039      N2067   1.324       .  A
N2039     Co2057   2.068       .  S
H2040      C2063   1.082       .  S
H2041      C2058   1.081       .  S
N2043     Co2057   2.082       .  S
N2044      N2056   1.336       .  A
N2044      N2060   1.319       .  A
N2044     Co2053   2.152       .  S
C2045      N2049   1.339       .  A
C2045      C2059   1.463       .  S
C2045      C2590   1.456       .  S
C2046      C2065   1.473       .  S
C2046      H2050   1.082       .  S
N2047      C2058   1.337       .  A
N2047     Co2057   2.063       .  S
C2051      N2067   1.342       .  A
C2051      C2063   1.476       .  S
C2051      C2565   1.486       .  S
Co2053    Cl2064   2.460       .  S
N2054      C2065   1.341       .  A
C2055      C2569   1.464       .  S
Co2057    Cl2064   2.448       .  S
C2065      C2629   1.481       .  S
C2068      N2086   1.353       .  A
C2068      C2105   1.445       .  S
C2068      C2594   1.463       .  S
N2069      N2086   1.323       .  A
N2069      N2091   1.315       .  A
N2069     Co2106   2.094       .  S
C2070      N2095   1.358       .  A
C2070      C2108   1.485       .  S
C2070      H2115   1.082       .  S
H2071      C2112   1.082       .  S
C2072      N2096   1.322       .  A
C2072      C2076   1.438       .  S
C2072      H2101   1.080       .  S
Co2073     N2091   2.041       .  S
Co2073     N2081   2.081       .  S
Co2073     N2113   2.090       .  S
Co2073     N2089   2.029       .  S
Co2073    Cl2117   2.451       .  S
N2074      C2112   1.346       .  A
N2074      N2081   1.324       .  A
N2074     Co2075   2.127       .  S
Co2075     N2078   2.158       .  S
Co2075     N2095   2.158       .  S
Co2075     N2082   2.132       .  S
Co2075    Cl2117   2.451       .  S
C2076      N2114   1.369       .  A
C2076      C3230   1.487       .  S
N2077      N2084   1.315       .  A
N2077      N2107   1.326       .  A
N2077     Co2110   2.088       .  S
N2078      N2096   1.319       .  A
N2078      N2114   1.338       .  A
N2079      C2108   1.334       .  A
N2079      N2089   1.317       .  A
H2080      C2105   1.082       .  S
N2081      N2102   1.327       .  A
N2082      N2100   1.323       .  A
N2082      N2087   1.330       .  A
C2083      N2087   1.360       .  A
C2083      C2111   1.447       .  S
C2083      C2574   1.478       .  S
N2084      C2099   1.331       .  A
N2084     Co2106   2.045       .  S
C2085      N2113   1.342       .  A
C2085      C2088   1.468       .  S
C2085      H2119   1.081       .  S
C2088      N2109   1.339       .  A
C2088      C2662   1.456       .  S
N2089      N2095   1.322       .  A
N2090      C2116   1.343       .  A
N2090      N2092   1.315       .  A
N2090     Co2106   2.099       .  S
N2091      C2105   1.337       .  A
N2092      N2120   1.322       .  A
N2092     Co2110   2.043       .  S
H2093      C2116   1.080       .  S
H2094      C2111   1.080       .  S
N2096     Co2110   2.019       .  S
N2097      N2109   1.317       .  A
N2097      N2113   1.316       .  A
N2097     Co2106   2.042       .  S
C2098      N2102   1.345       .  A
C2098      C2112   1.470       .  S
C2098      C3282   1.485       .  S
C2099      C2118   1.445       .  S
C2099      H2103   1.081       .  S
N2100      C2111   1.337       .  A
N2100     Co2110   2.066       .  S
C2104      N2120   1.340       .  A
C2104      C2116   1.467       .  S
C2104      C2561   1.468       .  S
Co2106    Cl2117   2.439       .  S
N2107      C2118   1.354       .  A
C2108      C2557   1.486       .  S
Co2110    Cl2117   2.448       .  S
C2118      C2582   1.457       .  S
C2121      N2139   1.368       .  A
C2121      C2158   1.438       .  S
C2121      C3146   1.483       .  S
N2122      N2139   1.336       .  A
N2122      N2144   1.321       .  A
N2122     Co2159   2.157       .  S
C2123      N2148   1.337       .  A
C2123      C2161   1.468       .  S
C2123      H2168   1.081       .  S
H2124      C2165   1.080       .  S
C2125      N2149   1.339       .  A
C2125      C2129   1.449       .  S
C2125      H2154   1.082       .  S
Co2126     N2144   2.023       .  S
Co2126     N2134   2.088       .  S
Co2126     N2166   2.059       .  S
Co2126     N2142   2.039       .  S
Co2126    Cl2170   2.447       .  S
N2127      C2165   1.333       .  A
N2127      N2134   1.315       .  A
N2127     Co2128   2.051       .  S
Co2128     N2131   2.087       .  S
Co2128     N2148   2.083       .  S
Co2128     N2135   2.044       .  S
Co2128    Cl2170   2.434       .  S
C2129      N2167   1.352       .  A
C2129      C2578   1.464       .  S
N2130      N2137   1.324       .  A
N2130      N2160   1.323       .  A
N2130     Co2163   2.068       .  S
N2131      N2149   1.316       .  A
N2131      N2167   1.322       .  A
N2132      C2161   1.341       .  A
N2132      N2142   1.320       .  A
H2133      C2158   1.080       .  S
N2134      N2155   1.327       .  A
N2135      N2153   1.316       .  A
N2135      N2140   1.315       .  A
C2136      N2140   1.337       .  A
C2136      C2164   1.471       .  S
C2136      C2562   1.460       .  S
N2137      C2152   1.354       .  A
N2137     Co2159   2.148       .  S
C2138      N2166   1.336       .  A
C2138      C2141   1.446       .  S
C2138      H2172   1.080       .  S
C2141      N2162   1.365       .  A
C2141      C2649   1.489       .  S
N2142      N2148   1.314       .  A
N2143      C2169   1.358       .  A
N2143      N2145   1.324       .  A
N2143     Co2159   2.162       .  S
N2144      C2158   1.324       .  A
N2145      N2173   1.318       .  A
N2145     Co2163   2.041       .  S
H2146      C2169   1.081       .  S
H2147      C2164   1.082       .  S
N2149     Co2163   2.053       .  S
N2150      N2162   1.334       .  A
N2150      N2166   1.321       .  A
N2150     Co2159   2.145       .  S
C2151      N2155   1.354       .  A
C2151      C2165   1.449       .  S
C2151      C2774   1.466       .  S
C2152      C2171   1.479       .  S
C2152      H2156   1.082       .  S
N2153      C2164   1.348       .  A
N2153     Co2163   2.095       .  S
C2157      N2173   1.337       .  A
C2157      C2169   1.485       .  S
C2157      C2566   1.491       .  S
Co2159    Cl2170   2.448       .  S
N2160      C2171   1.342       .  A
C2161      C2666   1.462       .  S
Co2163    Cl2170   2.460       .  S
C2171      C3085   1.493       .  S
C2174      N2192   1.342       .  A
C2174      C2211   1.451       .  S
C2174      C2586   1.448       .  S
N2175      N2192   1.318       .  A
N2175      N2197   1.315       .  A
N2175     Co2212   2.066       .  S
C2176      N2201   1.357       .  A
C2176      C2214   1.484       .  S
C2176      H2221   1.082       .  S
H2177      C2218   1.082       .  S
C2178      N2202   1.341       .  A
C2178      C2182   1.452       .  S
C2178      H2207   1.081       .  S
Co2179     N2197   2.053       .  S
Co2179     N2187   2.038       .  S
Co2179     N2219   2.070       .  S
Co2179     N2195   2.040       .  S
Co2179    Cl2223   2.460       .  S
N2180      C2218   1.355       .  A
N2180      N2187   1.322       .  A
N2180     Co2181   2.149       .  S
Co2181     N2184   2.164       .  S
Co2181     N2201   2.161       .  S
Co2181     N2188   2.144       .  S
Co2181    Cl2223   2.452       .  S
C2182      N2220   1.369       .  A
C2182      C2622   1.505       .  S
N2183      N2190   1.317       .  A
N2183      N2213   1.325       .  A
N2183     Co2216   2.071       .  S
N2184      N2202   1.323       .  A
N2184      N2220   1.337       .  A
N2185      C2214   1.334       .  A
N2185      N2195   1.318       .  A
H2186      C2211   1.081       .  S
N2187      N2208   1.318       .  A
N2188      N2206   1.322       .  A
N2188      N2193   1.332       .  A
C2189      N2193   1.362       .  A
C2189      C2217   1.449       .  S
C2189      C2657   1.485       .  S
N2190      C2205   1.334       .  A
N2190     Co2212   2.065       .  S
C2191      N2219   1.337       .  A
C2191      C2194   1.453       .  S
C2191      H2225   1.080       .  S
C2194      N2215   1.354       .  A
C2194      C2570   1.471       .  S
N2195      N2201   1.324       .  A
N2196      C2222   1.333       .  A
N2196      N2198   1.319       .  A
N2196     Co2212   2.057       .  S
N2197      C2211   1.340       .  A
N2198      N2226   1.328       .  A
N2198     Co2216   2.099       .  S
H2199      C2222   1.082       .  S
H2200      C2217   1.082       .  S
N2202     Co2216   2.077       .  S
N2203      N2215   1.327       .  A
N2203      N2219   1.313       .  A
N2203     Co2212   2.087       .  S
C2204      N2208   1.334       .  A
C2204      C2218   1.482       .  S
C2204      C2802   1.483       .  S
C2205      C2224   1.446       .  S
C2205      H2209   1.080       .  S
N2206      C2217   1.337       .  A
N2206     Co2216   2.058       .  S
C2210      N2226   1.354       .  A
C2210      C2222   1.446       .  S
C2210      C2654   1.465       .  S
Co2212    Cl2223   2.440       .  S
N2213      C2224   1.349       .  A
C2214      C2558   1.485       .  S
Co2216    Cl2223   2.458       .  S
C2224      C2685   1.455       .  S
C2227      N2245   1.337       .  A
C2227      C2264   1.470       .  S
C2227      C2618   1.456   1_556  S
N2228      N2245   1.315       .  A
N2228      N2250   1.316       .  A
N2228     Co2265   2.038       .  S
C2229      N2254   1.352       .  A
C2229      C2267   1.474       .  S
C2229      H2274   1.082       .  S
H2230      C2271   1.081       .  S
C2231      N2255   1.336       .  A
C2231      C2235   1.447       .  S
C2231      H2260   1.080       .  S
Co2232     N2250   2.098       .  S
Co2232     N2240   2.026       .  S
Co2232     N2272   2.060       .  S
Co2232     N2248   2.069       .  S
Co2232    Cl2276   2.459       .  S
N2233      C2271   1.356       .  A
N2233      N2240   1.322       .  A
N2233     Co2234   2.152       .  S
Co2234     N2237   2.152       .  S
Co2234     N2254   2.141       .  S
Co2234     N2241   2.148       .  S
Co2234    Cl2276   2.451       .  S
C2235      N2273   1.367       .  A
C2235      C3178   1.494       .  S
N2236      N2243   1.313       .  A
N2236      N2266   1.319       .  A
N2236     Co2269   2.041       .  S
N2237      N2255   1.322       .  A
N2237      N2273   1.336       .  A
N2238      C2267   1.343       .  A
N2238      N2248   1.322       .  A
H2239      C2264   1.081       .  S
N2240      N2261   1.316       .  A
N2241      N2259   1.320       .  A
N2241      N2246   1.334       .  A
C2242      N2246   1.365       .  A
C2242      C2270   1.441       .  S
C2242      C3130   1.481       .  S
N2243      C2258   1.339   1_556  A
N2243     Co2265   2.076       .  S
C2244      N2272   1.344       .  A
C2244      C2247   1.457       .  S
C2244      H2278   1.082       .  S
C2247      N2268   1.345   1_556  A
C2247      C2749   1.464   1_556  S
N2248      N2254   1.325       .  A
N2249      C2275   1.329   1_556  A
N2249      N2251   1.315       .  A
N2249     Co2265   2.036       .  S
N2250      C2264   1.346       .  A
N2251      N2279   1.326       .  A
N2251     Co2269   2.095       .  S
H2252      C2275   1.081       .  S
H2253      C2270   1.081       .  S
N2255     Co2269   2.067       .  S
N2256      N2268   1.316   1_556  A
N2256      N2272   1.313       .  A
N2256     Co2265   2.066       .  S
C2257      N2261   1.332       .  A
C2257      C2271   1.483       .  S
C2257      C3214   1.481       .  S
C2258      C2277   1.466   1_554  S
C2258      H2262   1.082       .  S
N2259      C2270   1.329       .  A
N2259     Co2269   2.027       .  S
C2263      N2279   1.357   1_554  A
C2263      C2275   1.439       .  S
C2263      C2790   1.455       .  S
Co2265    Cl2276   2.424       .  S
N2266      C2277   1.340       .  A
C2267      C3106   1.487       .  S
Co2269    Cl2276   2.447       .  S
C2277      C2554   1.460   1_556  S
C2280      N2298   1.363       .  A
C2280      C2317   1.446       .  S
C2280      C3309   1.482       .  S
N2281      N2298   1.332       .  A
N2281      N2303   1.321       .  A
N2281     Co2318   2.137       .  S
C2282      N2307   1.335   1_545  A
C2282      C2320   1.451       .  S
C2282      H2327   1.082       .  S
H2283      C2324   1.081       .  S
C2284      N2308   1.341       .  A
C2284      C2288   1.459       .  S
C2284      H2313   1.082       .  S
Co2285     N2303   2.055       .  S
Co2285     N2293   2.061       .  S
Co2285     N2325   2.061       .  S
Co2285     N2301   2.081       .  S
Co2285    Cl2329   2.454       .  S
N2286      C2324   1.338   1_565  A
N2286      N2293   1.318       .  A
N2286     Co2287   2.083       .  S
Co2287     N2290   2.084       .  S
Co2287     N2307   2.072       .  S
Co2287     N2294   2.067       .  S
Co2287    Cl2329   2.447       .  S
C2288      N2326   1.352   1_565  A
C2288      C2757   1.470       .  S
N2289      N2296   1.323       .  A
N2289      N2319   1.319       .  A
N2289     Co2322   2.045       .  S
N2290      N2308   1.317       .  A
N2290      N2326   1.326   1_565  A
N2291      C2320   1.352   1_565  A
N2291      N2301   1.327       .  A
H2292      C2317   1.081       .  S
N2293      N2314   1.321       .  A
N2294      N2312   1.317       .  A
N2294      N2299   1.318   1_565  A
C2295      N2299   1.346   1_565  A
C2295      C2323   1.449       .  S
C2295      C2550   1.455   1_565  S
N2296      C2311   1.360       .  A
N2296     Co2318   2.166       .  S
C2297      N2325   1.338       .  A
C2297      C2300   1.452       .  S
C2297      H2331   1.081       .  S
C2300      N2321   1.367       .  A
C2300      C2934   1.501       .  S
N2301      N2307   1.318       .  A
N2302      C2328   1.347       .  A
N2302      N2304   1.323       .  A
N2302     Co2318   2.127       .  S
N2303      C2317   1.335       .  A
N2304      N2332   1.326       .  A
N2304     Co2322   2.074       .  S
H2305      C2328   1.081       .  S
H2306      C2323   1.080       .  S
N2308     Co2322   2.090       .  S
N2309      N2321   1.337       .  A
N2309      N2325   1.322       .  A
N2309     Co2318   2.163       .  S
C2310      N2314   1.343       .  A
C2310      C2324   1.470   1_565  S
C2310      C2637   1.468   1_565  S
C2311      C2330   1.487       .  S
C2311      H2315   1.082       .  S
N2312      C2323   1.339       .  A
N2312     Co2322   2.057       .  S
C2316      N2332   1.345       .  A
C2316      C2328   1.470       .  S
C2316      C2890   1.485       .  S
Co2318    Cl2329   2.459       .  S
N2319      C2330   1.337       .  A
C2320      C2878   1.466       .  S
Co2322    Cl2329   2.454       .  S
C2330      C3278   1.496       .  S
C2333      N2351   1.367       .  A
C2333      C2370   1.445       .  S
C2333      C3274   1.491       .  S
N2334      N2351   1.337       .  A
N2334      N2356   1.322       .  A
N2334     Co2371   2.159       .  S
C2335      N2360   1.332   1_554  A
C2335      C2373   1.461   1_554  S
C2335      H2380   1.080       .  S
H2336      C2377   1.081       .  S
C2337      N2361   1.344       .  A
C2337      C2341   1.458       .  S
C2337      H2366   1.081       .  S
Co2338     N2356   2.043       .  S
Co2338     N2346   2.091       .  S
Co2338     N2378   2.058       .  S
Co2338     N2354   2.066       .  S
Co2338    Cl2382   2.456       .  S
N2339      C2377   1.336   1_556  A
N2339      N2346   1.316       .  A
N2339     Co2340   2.065       .  S
Co2340     N2343   2.066       .  S
Co2340     N2360   2.064       .  S
Co2340     N2347   2.063       .  S
Co2340    Cl2382   2.427       .  S
C2341      N2379   1.346   1_556  A
C2341      C2626   1.467   1_556  S
N2342      N2349   1.323       .  A
N2342      N2372   1.321       .  A
N2342     Co2375   2.041       .  S
N2343      N2361   1.317       .  A
N2343      N2379   1.319   1_556  A
N2344      C2373   1.348       .  A
N2344      N2354   1.324       .  A
H2345      C2370   1.081       .  S
N2346      N2367   1.327       .  A
N2347      N2365   1.314       .  A
N2347      N2352   1.316       .  A
C2348      N2352   1.349       .  A
C2348      C2376   1.451       .  S
C2348      C2714   1.455   1_556  S
N2349      C2364   1.351       .  A
N2349     Co2371   2.145       .  S
C2350      N2378   1.335       .  A
C2350      C2353   1.448       .  S
C2350      H2384   1.081       .  S
C2353      N2374   1.366       .  A
C2353      C3034   1.494       .  S
N2354      N2360   1.315       .  A
N2355      C2381   1.359       .  A
N2355      N2357   1.322       .  A
N2355     Co2371   2.158       .  S
N2356      C2370   1.329       .  A
N2357      N2385   1.320       .  A
N2357     Co2375   2.050       .  S
H2358      C2381   1.082       .  S
H2359      C2376   1.081       .  S
N2361     Co2375   2.077       .  S
N2362      N2374   1.336       .  A
N2362      N2378   1.321       .  A
N2362     Co2371   2.152       .  S
C2363      N2367   1.353   1_554  A
C2363      C2377   1.458       .  S
C2363      C2822   1.475       .  S
C2364      C2383   1.477       .  S
C2364      H2368   1.081       .  S
N2365      C2376   1.339       .  A
N2365     Co2375   2.052       .  S
C2369      N2385   1.337       .  A
C2369      C2381   1.486       .  S
C2369      C3070   1.495       .  S
Co2371    Cl2382   2.451       .  S
N2372      C2383   1.338       .  A
C2373      C2546   1.465   1_556  S
Co2375    Cl2382   2.459       .  S
C2383      C3250   1.479       .  S
C2386      N2404   1.349       .  A
C2386      C2423   1.458       .  S
C2386      C2718   1.469       .  S
N2387      N2404   1.324       .  A
N2387      N2409   1.316       .  A
N2387     Co2424   2.081       .  S
C2388      N2413   1.353       .  A
C2388      C2426   1.479       .  S
C2388      H2433   1.081       .  S
H2389      C2430   1.081       .  S
C2390      N2414   1.334       .  A
C2390      C2394   1.447       .  S
C2390      H2419   1.081       .  S
Co2391     N2409   2.083       .  S
Co2391     N2399   2.042       .  S
Co2391     N2431   2.065       .  S
Co2391     N2407   2.053       .  S
Co2391    Cl2435   2.447       .  S
N2392      C2430   1.351       .  A
N2392      N2399   1.323       .  A
N2392     Co2393   2.137       .  S
Co2393     N2396   2.156       .  S
Co2393     N2413   2.148       .  S
Co2393     N2400   2.145       .  S
Co2393    Cl2435   2.460       .  S
C2394      N2432   1.367       .  A
C2394      C3038   1.493       .  S
N2395      N2402   1.318       .  A
N2395      N2425   1.325       .  A
N2395     Co2428   2.078       .  S
N2396      N2414   1.321       .  A
N2396      N2432   1.335       .  A
N2397      C2426   1.338       .  A
N2397      N2407   1.321       .  A
H2398      C2423   1.081       .  S
N2399      N2420   1.318       .  A
N2400      N2418   1.321       .  A
N2400      N2405   1.333       .  A
C2401      N2405   1.364       .  A
C2401      C2429   1.450       .  S
C2401      C3014   1.491       .  S
N2402      C2417   1.334   1_655  A
N2402     Co2424   2.062       .  S
C2403      N2431   1.341       .  A
C2403      C2406   1.452       .  S
C2403      H2437   1.081       .  S
C2406      N2427   1.348       .  A
C2406      C2813   1.460   1_655  S
N2407      N2413   1.324       .  A
N2408      C2434   1.338   1_655  A
N2408      N2410   1.317       .  A
N2408     Co2424   2.077       .  S
N2409      C2423   1.341       .  A
N2410      N2438   1.322       .  A
N2410     Co2428   2.062       .  S
H2411      C2434   1.081       .  S
H2412      C2429   1.081       .  S
N2414     Co2428   2.051       .  S
N2415      N2427   1.318       .  A
N2415      N2431   1.315       .  A
N2415     Co2424   2.063       .  S
C2416      N2420   1.336       .  A
C2416      C2430   1.476       .  S
C2416      C3049   1.475       .  S
C2417      C2436   1.446   1_455  S
C2417      H2421   1.081       .  S
N2418      C2429   1.339       .  A
N2418     Co2428   2.064       .  S
C2422      N2438   1.344       .  A
C2422      C2434   1.462   1_655  S
C2422      C2829   1.463   1_655  S
Co2424    Cl2435   2.451       .  S
N2425      C2436   1.349       .  A
C2426      C2989   1.486       .  S
Co2428    Cl2435   2.448       .  S
C2436      C2545   1.456   1_655  S
C2439      N2457   1.346       .  A
C2439      C2476   1.456       .  S
C2439      C2734   1.459       .  S
N2440      N2457   1.314       .  A
N2440      N2462   1.314       .  A
N2440     Co2477   2.061       .  S
C2441      N2466   1.358       .  A
C2441      C2479   1.484       .  S
C2441      H2486   1.081       .  S
H2442      C2483   1.081       .  S
C2443      N2467   1.339       .  A
C2443      C2447   1.452       .  S
C2443      H2472   1.081       .  S
Co2444     N2462   2.061       .  S
Co2444     N2452   2.041       .  S
Co2444     N2484   2.083       .  S
Co2444     N2460   2.031       .  S
Co2444    Cl2488   2.466       .  S
N2445      C2483   1.355       .  A
N2445      N2452   1.322       .  A
N2445     Co2446   2.143       .  S
Co2446     N2449   2.164       .  S
Co2446     N2466   2.163       .  S
Co2446     N2453   2.141       .  S
Co2446    Cl2488   2.445       .  S
C2447      N2485   1.368       .  A
C2447      C3134   1.501       .  S
N2448      N2455   1.316       .  A
N2448      N2478   1.327       .  A
N2448     Co2481   2.095       .  S
N2449      N2467   1.322       .  A
N2449      N2485   1.337       .  A
N2450      C2479   1.334       .  A
N2450      N2460   1.316       .  A
H2451      C2476   1.082       .  S
N2452      N2473   1.317       .  A
N2453      N2471   1.322       .  A
N2453      N2458   1.333       .  A
C2454      N2458   1.362       .  A
C2454      C2482   1.458       .  S
C2454      C2894   1.497       .  S
N2455      C2470   1.331   1_655  A
N2455     Co2477   2.047       .  S
C2456      N2484   1.346       .  A
C2456      C2459   1.464       .  S
C2456      H2490   1.081       .  S
C2459      N2480   1.347       .  A
C2459      C2874   1.475   1_655  S
N2460      N2466   1.324       .  A
N2461      C2487   1.334   1_655  A
N2461      N2463   1.317       .  A
N2461     Co2477   2.057       .  S
N2462      C2476   1.343       .  A
N2463      N2491   1.320       .  A
N2463     Co2481   2.071       .  S
H2464      C2487   1.081       .  S
H2465      C2482   1.081       .  S
N2467     Co2481   2.067       .  S
N2468      N2480   1.318       .  A
N2468      N2484   1.314       .  A
N2468     Co2477   2.060       .  S
C2469      N2473   1.336       .  A
C2469      C2483   1.480       .  S
C2469      C3166   1.484       .  S
C2470      C2489   1.442   1_455  S
C2470      H2474   1.082       .  S
N2471      C2482   1.344       .  A
N2471     Co2481   2.083       .  S
C2475      N2491   1.349       .  A
C2475      C2487   1.450   1_655  S
C2475      C2549   1.453   1_655  S
Co2477    Cl2488   2.420       .  S
N2478      C2489   1.356       .  A
C2479      C2909   1.487       .  S
Co2481    Cl2488   2.463       .  S
C2489      C2766   1.461   1_655  S
C2492      N2510   1.367       .  A
C2492      C2529   1.450       .  S
C2492      C3194   1.499       .  S
N2493      N2510   1.336       .  A
N2493      N2515   1.322       .  A
N2493     Co2530   2.155       .  S
C2494      N2519   1.332   1_545  A
C2494      C2532   1.439   1_545  S
C2494      H2539   1.080       .  S
H2495      C2536   1.081       .  S
C2496      N2520   1.344       .  A
C2496      C2500   1.467   1_565  S
C2496      H2525   1.081       .  S
Co2497     N2515   2.070       .  S
Co2497     N2505   2.048       .  S
Co2497     N2537   2.026       .  S
Co2497     N2513   2.084       .  S
Co2497    Cl2541   2.446       .  S
N2498      C2536   1.342   1_565  A
N2498      N2505   1.315       .  A
N2498     Co2499   2.088       .  S
Co2499     N2502   2.040       .  S
Co2499     N2519   2.051       .  S
Co2499     N2506   2.092       .  S
Co2499    Cl2541   2.451       .  S
C2500      N2538   1.337       .  A
C2500      C2553   1.454       .  S
N2501      N2508   1.323       .  A
N2501      N2531   1.321       .  A
N2501     Co2534   2.049       .  S
N2502      N2520   1.318       .  A
N2502      N2538   1.316   1_565  A
N2503      C2532   1.349       .  A
N2503      N2513   1.325       .  A
H2504      C2529   1.080       .  S
N2505      N2526   1.321       .  A
N2506      N2524   1.314       .  A
N2506      N2511   1.325   1_565  A
C2507      N2511   1.350   1_565  A
C2507      C2535   1.457       .  S
C2507      C2794   1.471       .  S
N2508      C2523   1.350       .  A
N2508     Co2530   2.137       .  S
C2509      N2537   1.327       .  A
C2509      C2512   1.442       .  S
C2509      H2543   1.080       .  S
C2512      N2533   1.369       .  A
C2512      C2962   1.491       .  S
N2513      N2519   1.318       .  A
N2514      C2540   1.348       .  A
N2514      N2516   1.326       .  A
N2514     Co2530   2.132       .  S
N2515      C2529   1.338       .  A
N2516      N2544   1.327       .  A
N2516     Co2534   2.085       .  S
H2517      C2540   1.080       .  S
H2518      C2535   1.080       .  S
N2520     Co2534   2.099       .  S
N2521      N2533   1.337       .  A
N2521      N2537   1.317       .  A
N2521     Co2530   2.152       .  S
C2522      N2526   1.340       .  A
C2522      C2536   1.464   1_565  S
C2522      C2614   1.464   1_565  S
C2523      C2542   1.475       .  S
C2523      H2527   1.082       .  S
N2524      C2535   1.340       .  A
N2524     Co2534   2.073       .  S
C2528      N2544   1.345       .  A
C2528      C2540   1.470       .  S
C2528      C3022   1.486       .  S
Co2530    Cl2541   2.459       .  S
N2531      C2542   1.338       .  A
C2532      C2854   1.451   1_565  S
Co2534    Cl2541   2.451       .  S
C2542      C3182   1.478       .  S
C2545      C2546   1.336       .  D
C2545      H2547   1.085       .  S
C2546      H2548   1.087   1_455  S
C2549      C2550   1.335       .  D
C2549      H2551   1.087       .  S
C2550      H2552   1.086   1_455  S
C2553      C2554   1.328       .  D
C2553      H2555   1.087       .  S
C2554      H2556   1.086       .  S
C2557      C2558   1.365       .  D
C2557      H2559   1.086       .  S
C2558      H2560   1.086       .  S
C2561      C2562   1.332       .  D
C2561      H2563   1.087       .  S
C2562      H2564   1.086       .  S
C2565      C2566   1.362       .  D
C2565      H2567   1.086       .  S
C2566      H2568   1.086       .  S
C2569      C2570   1.337       .  D
C2569      H2571   1.086       .  S
C2570      H2572   1.086       .  S
C2573      C2574   1.360       .  D
C2573      H2575   1.084       .  S
C2574      H2576   1.084       .  S
C2577      C2578   1.332       .  D
C2577      H2579   1.088       .  S
C2578      H2580   1.086       .  S
C2581      C2582   1.332       .  D
C2581      H2583   1.086       .  S
C2582      H2584   1.088       .  S
C2585      C2586   1.332       .  D
C2585      H2587   1.087       .  S
C2586      H2588   1.088       .  S
C2589      C2590   1.327       .  D
C2589      H2591   1.087       .  S
C2590      H2592   1.087       .  S
C2593      C2594   1.331       .  D
C2593      H2595   1.088       .  S
C2594      H2596   1.087       .  S
C2597      C2598   1.333       .  D
C2597      H2599   1.086       .  S
C2598      H2600   1.087       .  S
C2601      C2602   1.332       .  D
C2601      H2603   1.087       .  S
C2602      H2604   1.087       .  S
C2605      C2606   1.334       .  D
C2605      H2607   1.086       .  S
C2606      H2608   1.086       .  S
C2609      C2610   1.358       .  D
C2609      H2611   1.085       .  S
C2610      H2612   1.086       .  S
C2613      C2614   1.332       .  D
C2613      H2615   1.087       .  S
C2614      H2616   1.086       .  S
C2617      C2618   1.329       .  D
C2617      H2619   1.087       .  S
C2618      H2620   1.087       .  S
C2621      C2622   1.367       .  D
C2621      H2623   1.085       .  S
C2622      H2624   1.086       .  S
C2625      C2626   1.340       .  D
C2625      H2627   1.088       .  S
C2626      H2628   1.086       .  S
C2629      C2630   1.362       .  D
C2629      H2631   1.084       .  S
C2630      H2632   1.085       .  S
C2633      C2634   1.367       .  D
C2633      H2635   1.086       .  S
C2634      H2636   1.084       .  S
C2637      C2638   1.329       .  D
C2637      H2639   1.086       .  S
C2638      H2640   1.086       .  S
C2641      C2642   1.337       .  D
C2641      H2643   1.086       .  S
C2642      H2644   1.086       .  S
C2645      C2646   1.343       .  D
C2645      H2647   1.086       .  S
C2646      H2648   1.085       .  S
C2649      C2650   1.364       .  D
C2649      H2651   1.084       .  S
C2650      H2652   1.085       .  S
C2653      C2654   1.336       .  D
C2653      H2655   1.086       .  S
C2654      H2656   1.087       .  S
C2657      C2658   1.360       .  D
C2657      H2659   1.084       .  S
C2658      H2660   1.085       .  S
C2661      C2662   1.330       .  D
C2661      H2663   1.086       .  S
C2662      H2664   1.087       .  S
C2665      C2666   1.328       .  D
C2665      H2667   1.086       .  S
C2666      H2668   1.086       .  S
C2669      C2670   1.359       .  D
C2669      H2671   1.086       .  S
C2670      H2672   1.087       .  S
C2673      C2674   1.331       .  D
C2673      H2675   1.087       .  S
C2674      H2676   1.086       .  S
C2677      C2678   1.364       .  D
C2677      H2679   1.085       .  S
C2678      H2680   1.082       .  S
C2681      C2682   1.359       .  D
C2681      H2683   1.084       .  S
C2682      H2684   1.085       .  S
C2685      C2686   1.334       .  D
C2685      H2687   1.086       .  S
C2686      H2688   1.087       .  S
C2689      C2690   1.335       .  D
C2689      H2691   1.086       .  S
C2690      H2692   1.088       .  S
C2693      C2694   1.339       .  D
C2693      H2695   1.085       .  S
C2694      H2696   1.085       .  S
C2697      C2698   1.330       .  D
C2697      H2699   1.086       .  S
C2698      H2700   1.086       .  S
C2701      C2702   1.343       .  D
C2701      H2703   1.086       .  S
C2702      H2704   1.086       .  S
C2705      C2706   1.357       .  D
C2705      H2707   1.086       .  S
C2706      H2708   1.086       .  S
C2709      C2710   1.360       .  D
C2709      H2711   1.085       .  S
C2710      H2712   1.085       .  S
C2713      C2714   1.333       .  D
C2713      H2715   1.087       .  S
C2714      H2716   1.086       .  S
C2717      C2718   1.339   1_455  D
C2717      H2719   1.086       .  S
C2718      H2720   1.087       .  S
C2721      C2722   1.366       .  D
C2721      H2723   1.083       .  S
C2722      H2724   1.086       .  S
C2725      C2726   1.337       .  D
C2725      H2727   1.086       .  S
C2726      H2728   1.086       .  S
C2729      C2730   1.365       .  D
C2729      H2731   1.085       .  S
C2730      H2732   1.083       .  S
C2733      C2734   1.337   1_455  D
C2733      H2735   1.088       .  S
C2734      H2736   1.087       .  S
C2737      C2738   1.361       .  D
C2737      H2739   1.084       .  S
C2738      H2740   1.086       .  S
C2741      C2742   1.333       .  D
C2741      H2743   1.086       .  S
C2742      H2744   1.085       .  S
C2745      C2746   1.364       .  D
C2745      H2747   1.084       .  S
C2746      H2748   1.085       .  S
C2749      C2750   1.339       .  D
C2749      H2751   1.086       .  S
C2750      H2752   1.087       .  S
C2753      C2754   1.330       .  D
C2753      H2755   1.087       .  S
C2754      H2756   1.088       .  S
C2757      C2758   1.342   1_565  D
C2757      H2759   1.086       .  S
C2758      H2760   1.086       .  S
C2761      C2762   1.330       .  D
C2761      H2763   1.088       .  S
C2762      H2764   1.086       .  S
C2765      C2766   1.331       .  D
C2765      H2767   1.087       .  S
C2766      H2768   1.088       .  S
C2769      C2770   1.323       .  D
C2769      H2771   1.087       .  S
C2770      H2772   1.087       .  S
C2773      C2774   1.338       .  D
C2773      H2775   1.087       .  S
C2774      H2776   1.086       .  S
C2777      C2778   1.333       .  D
C2777      H2779   1.085       .  S
C2778      H2780   1.087       .  S
C2781      C2782   1.345       .  D
C2781      H2783   1.090       .  S
C2782      H2784   1.089       .  S
C2785      C2786   1.341       .  D
C2785      H2787   1.087       .  S
C2786      H2788   1.086       .  S
C2789      C2790   1.326       .  D
C2789      H2791   1.087       .  S
C2790      H2792   1.087       .  S
C2793      C2794   1.338   1_545  D
C2793      H2795   1.086       .  S
C2794      H2796   1.087       .  S
C2797      C2798   1.364       .  D
C2797      H2799   1.086       .  S
C2798      H2800   1.085       .  S
C2801      C2802   1.365       .  D
C2801      H2803   1.086       .  S
C2802      H2804   1.083       .  S
C2805      C2806   1.332       .  D
C2805      H2807   1.087       .  S
C2806      H2808   1.086       .  S
C2809      C2810   1.334       .  D
C2809      H2811   1.086       .  S
C2810      H2812   1.086       .  S
C2813      C2814   1.334       .  D
C2813      H2815   1.086   1_455  S
C2814      H2816   1.088       .  S
C2817      C2818   1.327       .  D
C2817      H2819   1.088       .  S
C2818      H2820   1.087       .  S
C2821      C2822   1.343       .  D
C2821      H2823   1.085       .  S
C2822      H2824   1.085       .  S
C2825      C2826   1.334       .  D
C2825      H2827   1.086       .  S
C2826      H2828   1.086       .  S
C2829      C2830   1.335       .  D
C2829      H2831   1.086       .  S
C2830      H2832   1.085       .  S
C2833      C2834   1.360       .  D
C2833      H2835   1.083       .  S
C2834      H2836   1.086       .  S
C2837      C2838   1.358       .  D
C2837      H2839   1.084       .  S
C2838      H2840   1.086       .  S
C2841      C2842   1.328       .  D
C2841      H2843   1.087       .  S
C2842      H2844   1.086       .  S
C2845      C2846   1.340       .  D
C2845      H2847   1.086       .  S
C2846      H2848   1.087       .  S
C2849      C2850   1.334       .  D
C2849      H2851   1.086       .  S
C2850      H2852   1.087       .  S
C2853      C2854   1.327       .  D
C2853      H2855   1.087   1_545  S
C2854      H2856   1.086       .  S
C2857      C2858   1.361       .  D
C2857      H2859   1.085       .  S
C2858      H2860   1.085       .  S
C2861      C2862   1.363       .  D
C2861      H2863   1.085       .  S
C2862      H2864   1.083       .  S
C2865      C2866   1.332       .  D
C2865      H2867   1.087       .  S
C2866      H2868   1.086       .  S
C2869      C2870   1.327       .  D
C2869      H2871   1.087       .  S
C2870      H2872   1.086       .  S
C2873      C2874   1.343       .  D
C2873      H2875   1.087       .  S
C2874      H2876   1.086       .  S
C2877      C2878   1.341       .  D
C2877      H2879   1.086       .  S
C2878      H2880   1.086       .  S
C2881      C2882   1.362       .  D
C2881      H2883   1.086       .  S
C2882      H2884   1.085       .  S
C2885      C2886   1.365       .  D
C2885      H2887   1.087       .  S
C2886      H2888   1.084       .  S
C2889      C2890   1.359   1_655  D
C2889      H2891   1.086       .  S
C2890      H2892   1.086       .  S
C2893      C2894   1.360   1_565  D
C2893      H2895   1.087       .  S
C2894      H2896   1.091       .  S
C2897      C2898   1.361       .  D
C2897      H2899   1.083       .  S
C2898      H2900   1.085       .  S
C2901      C2902   1.363       .  D
C2901      H2903   1.085       .  S
C2902      H2904   1.086       .  S
C2905      C2906   1.365   1_655  D
C2905      H2907   1.086       .  S
C2906      H2908   1.084       .  S
C2909      C2910   1.362       .  D
C2909      H2911   1.086       .  S
C2910      H2912   1.086       .  S
C2913      C2914   1.335       .  D
C2913      H2915   1.084       .  S
C2914      H2916   1.085       .  S
C2917      C2918   1.365       .  D
C2917      H2919   1.083       .  S
C2918      H2920   1.085       .  S
C2921      C2922   1.363       .  D
C2921      H2923   1.084       .  S
C2922      H2924   1.085       .  S
C2925      C2926   1.366   1_565  D
C2925      H2927   1.084       .  S
C2926      H2928   1.085       .  S
C2929      C2930   1.334   1_455  D
C2929      H2931   1.086       .  S
C2930      H2932   1.086       .  S
C2933      C2934   1.363       .  D
C2933      H2935   1.085       .  S
C2934      H2936   1.085       .  S
C2937      C2938   1.348       .  D
C2937      H2939   1.087       .  S
C2938      H2940   1.086   1_655  S
C2941      C2942   1.330       .  D
C2941      H2943   1.087       .  S
C2942      H2944   1.085       .  S
C2945      C2946   1.363       .  D
C2945      H2947   1.085       .  S
C2946      H2948   1.085       .  S
C2949      C2950   1.371       .  D
C2949      H2951   1.083       .  S
C2950      H2952   1.086       .  S
C2953      C2954   1.360   1_565  D
C2953      H2955   1.084       .  S
C2954      H2956   1.086       .  S
C2957      C2958   1.335       .  D
C2957      H2959   1.087       .  S
C2958      H2960   1.086       .  S
C2961      C2962   1.362       .  D
C2961      H2963   1.083       .  S
C2962      H2964   1.085       .  S
C2965      C2966   1.365       .  D
C2965      H2967   1.085       .  S
C2966      H2968   1.084       .  S
C2969      C2970   1.331       .  D
C2969      H2971   1.088       .  S
C2970      H2972   1.087       .  S
C2973      C2974   1.338       .  D
C2973      H2975   1.088       .  S
C2974      H2976   1.085       .  S
C2977      C2978   1.359       .  D
C2977      H2979   1.086       .  S
C2978      H2980   1.086       .  S
C2981      C2982   1.360   1_655  D
C2981      H2983   1.086       .  S
C2982      H2984   1.086       .  S
C2985      C2986   1.340       .  D
C2985      H2987   1.086       .  S
C2986      H2988   1.087       .  S
C2989      C2990   1.362       .  D
C2989      H2991   1.084       .  S
C2990      H2992   1.086       .  S
C2993      C2994   1.364   1_565  D
C2993      H2995   1.084       .  S
C2994      H2996   1.086       .  S
C2997      C2998   1.360   1_455  D
C2997      H2999   1.086       .  S
C2998      H3000   1.086       .  S
C3001      C3002   1.331   1_565  D
C3001      H3003   1.086       .  S
C3002      H3004   1.087       .  S
C3005      C3006   1.328   1_655  D
C3005      H3007   1.088       .  S
C3006      H3008   1.086       .  S
C3009      C3010   1.331       .  D
C3009      H3011   1.087       .  S
C3010      H3012   1.087       .  S
C3013      C3014   1.362       .  D
C3013      H3015   1.086       .  S
C3014      H3016   1.084       .  S
C3017      C3018   1.331       .  D
C3017      H3019   1.087       .  S
C3018      H3020   1.087       .  S
C3021      C3022   1.358       .  D
C3021      H3023   1.086       .  S
C3022      H3024   1.083       .  S
C3025      C3026   1.362       .  D
C3025      H3027   1.084       .  S
C3026      H3028   1.086       .  S
C3029      C3030   1.365       .  D
C3029      H3031   1.085       .  S
C3030      H3032   1.085       .  S
C3033      C3034   1.361   1_655  D
C3033      H3035   1.085       .  S
C3034      H3036   1.085       .  S
C3037      C3038   1.363   1_556  D
C3037      H3039   1.084       .  S
C3038      H3040   1.086       .  S
C3041      C3042   1.359       .  D
C3041      H3043   1.086       .  S
C3042      H3044   1.086       .  S
C3045      C3046   1.364       .  D
C3045      H3047   1.083       .  S
C3046      H3048   1.084       .  S
C3049      C3050   1.361       .  D
C3049      H3051   1.083       .  S
C3050      H3052   1.086       .  S
C3053      C3054   1.327   1_556  D
C3053      H3055   1.086       .  S
C3054      H3056   1.087       .  S
C3057      C3058   1.365   1_655  D
C3057      H3059   1.084       .  S
C3058      H3060   1.086       .  S
C3061      C3062   1.363       .  D
C3061      H3063   1.086       .  S
C3062      H3064   1.086       .  S
C3065      C3066   1.363       .  D
C3065      H3067   1.084       .  S
C3066      H3068   1.086       .  S
C3069      C3070   1.364       .  D
C3069      H3071   1.086       .  S
C3070      H3072   1.086       .  S
C3073      C3074   1.331       .  D
C3073      H3075   1.087       .  S
C3074      H3076   1.087       .  S
C3077      C3078   1.369   1_556  D
C3077      H3079   1.086       .  S
C3078      H3080   1.083       .  S
C3081      C3082   1.333   1_455  D
C3081      H3083   1.086       .  S
C3082      H3084   1.086   1_554  S
C3085      C3086   1.360       .  D
C3085      H3087   1.086       .  S
C3086      H3088   1.086       .  S
C3089      C3090   1.330       .  D
C3089      H3091   1.087       .  S
C3090      H3092   1.087       .  S
C3093      C3094   1.364       .  D
C3093      H3095   1.085       .  S
C3094      H3096   1.082       .  S
C3097      C3098   1.361       .  D
C3097      H3099   1.086       .  S
C3098      H3100   1.082       .  S
C3101      C3102   1.331       .  D
C3101      H3103   1.087       .  S
C3102      H3104   1.087   1_554  S
C3105      C3106   1.355       .  D
C3105      H3107   1.086       .  S
C3106      H3108   1.086       .  S
C3109      C3110   1.358   1_655  D
C3109      H3111   1.084       .  S
C3110      H3112   1.086       .  S
C3113      C3114   1.365   1_556  D
C3113      H3115   1.085       .  S
C3114      H3116   1.085       .  S
C3117      C3118   1.337       .  D
C3117      H3119   1.086   1_556  S
C3118      H3120   1.087       .  S
C3121      C3122   1.329       .  D
C3121      H3123   1.087       .  S
C3122      H3124   1.086   1_655  S
C3125      C3126   1.337       .  D
C3125      H3127   1.086       .  S
C3126      H3128   1.085       .  S
C3129      C3130   1.361       .  D
C3129      H3131   1.084       .  S
C3130      H3132   1.084       .  S
C3133      C3134   1.365       .  D
C3133      H3135   1.084       .  S
C3134      H3136   1.085       .  S
C3137      C3138   1.359       .  D
C3137      H3139   1.086       .  S
C3138      H3140   1.083       .  S
C3141      C3142   1.339       .  D
C3141      H3143   1.086       .  S
C3142      H3144   1.088       .  S
C3145      C3146   1.362       .  D
C3145      H3147   1.083       .  S
C3146      H3148   1.086       .  S
C3149      C3150   1.328       .  D
C3149      H3151   1.087       .  S
C3150      H3152   1.087       .  S
C3153      C3154   1.361   1_655  D
C3153      H3155   1.084       .  S
C3154      H3156   1.083       .  S
C3157      C3158   1.341       .  D
C3157      H3159   1.087       .  S
C3158      H3160   1.085       .  S
C3161      C3162   1.331       .  D
C3161      H3163   1.087       .  S
C3162      H3164   1.087       .  S
C3165      C3166   1.360       .  D
C3165      H3167   1.086       .  S
C3166      H3168   1.086       .  S
C3169      C3170   1.363       .  D
C3169      H3171   1.084       .  S
C3170      H3172   1.085       .  S
C3173      C3174   1.362       .  D
C3173      H3175   1.086       .  S
C3174      H3176   1.085       .  S
C3177      C3178   1.364   1_565  D
C3177      H3179   1.084       .  S
C3178      H3180   1.086       .  S
C3181      C3182   1.361   1_556  D
C3181      H3183   1.086       .  S
C3182      H3184   1.084       .  S
C3185      C3186   1.363       .  D
C3185      H3187   1.086       .  S
C3186      H3188   1.086       .  S
C3189      C3190   1.366       .  D
C3189      H3191   1.085       .  S
C3190      H3192   1.083       .  S
C3193      C3194   1.363       .  D
C3193      H3195   1.084       .  S
C3194      H3196   1.086       .  S
C3197      C3198   1.328       .  D
C3197      H3199   1.087   1_556  S
C3198      H3200   1.086       .  S
C3201      C3202   1.361   1_565  D
C3201      H3203   1.086       .  S
C3202      H3204   1.084       .  S
C3205      C3206   1.366       .  D
C3205      H3207   1.086       .  S
C3206      H3208   1.086       .  S
C3209      C3210   1.363       .  D
C3209      H3211   1.084       .  S
C3210      H3212   1.084       .  S
C3213      C3214   1.364       .  D
C3213      H3215   1.086       .  S
C3214      H3216   1.084       .  S
C3217      C3218   1.333       .  D
C3217      H3219   1.086   1_565  S
C3218      H3220   1.087       .  S
C3221      C3222   1.362   1_556  D
C3221      H3223   1.084       .  S
C3222      H3224   1.085       .  S
C3225      C3226   1.330       .  D
C3225      H3227   1.085       .  S
C3226      H3228   1.086   1_566  S
C3229      C3230   1.361       .  D
C3229      H3231   1.083       .  S
C3230      H3232   1.085       .  S
C3233      C3234   1.333       .  D
C3233      H3235   1.085       .  S
C3234      H3236   1.086       .  S
C3237      C3238   1.361       .  D
C3237      H3239   1.086       .  S
C3238      H3240   1.086       .  S
C3241      C3242   1.362   1_556  D
C3241      H3243   1.085   1_556  S
C3242      H3244   1.086       .  S
C3245      C3246   1.330       .  D
C3245      H3247   1.087       .  S
C3246      H3248   1.088   1_554  S
C3249      C3250   1.362       .  D
C3249      H3251   1.086       .  S
C3250      H3252   1.083       .  S
C3253      C3254   1.361   1_565  D
C3253      H3255   1.085       .  S
C3254      H3256   1.083       .  S
C3257      C3258   1.362       .  D
C3257      H3259   1.086       .  S
C3258      H3260   1.082       .  S
C3261      C3262   1.334       .  D
C3261      H3263   1.086       .  S
C3262      H3264   1.087   1_554  S
C3265      C3266   1.337       .  D
C3265      H3267   1.086   1_565  S
C3266      H3268   1.087       .  S
C3269      C3270   1.332       .  D
C3269      H3271   1.085       .  S
C3270      H3272   1.086       .  S
C3273      C3274   1.360       .  D
C3273      H3275   1.084       .  S
C3274      H3276   1.085       .  S
C3277      C3278   1.365       .  D
C3277      H3279   1.086       .  S
C3278      H3280   1.086       .  S
C3281      C3282   1.360       .  D
C3281      H3283   1.086       .  S
C3282      H3284   1.083       .  S
C3285      C3286   1.364       .  D
C3285      H3287   1.084       .  S
C3286      H3288   1.085       .  S
C3289      C3290   1.338       .  D
C3289      H3291   1.086       .  S
C3290      H3292   1.084       .  S
C3293      C3294   1.334       .  D
C3293      H3295   1.087       .  S
C3294      H3296   1.086       .  S
C3297      C3298   1.365   1_565  D
C3297      H3299   1.086       .  S
C3298      H3300   1.086       .  S
C3301      C3302   1.331   1_565  D
C3301      H3303   1.086       .  S
C3302      H3304   1.086       .  S
C3305      C3306   1.342       .  D
C3305      H3307   1.086       .  S
C3306      H3308   1.085       .  S
C3309      C3310   1.361       .  D
C3309      H3311   1.084       .  S
C3310      H3312   1.085       .  S
