geometry optimzed in LAMMPS
_audit_creation_date              2020-11-30 
_audit_creation_method            'lammps2cif' 
_symmetry_space_group_name_H-M    'P1' 
_symmetry_Int_Tables_number       1 
_symmetry_cell_setting            triclinic 
loop_ 
_symmetry_equiv_pos_as_xyz 
  x,y,z 
_cell_length_a                    39.94121712 
_cell_length_b                    38.80519175669781 
_cell_length_c                    31.48248793981378 
_cell_angle_alpha                 90.2185939168836 
_cell_angle_beta                  91.85744309360537 
_cell_angle_gamma                 91.39183353553167 
loop_ 
_atom_site_label 
_atom_site_type_symbol 
_atom_site_fract_x 
_atom_site_fract_y 
_atom_site_fract_z 
_atom_site_charge 
O1          O  0.03775179  0.46727752  0.39331721    -0.72300
O2          O  0.48509553  0.04314718  0.40907138    -0.72500
O3          O  0.47239082  0.47582612  0.39946536    -0.72400
O4          O  0.04996542  0.03496415  0.39727882    -0.72400
O5          O  0.04251968  0.03707176  0.32852089    -0.72300
O6          O  0.46456388  0.48405304  0.33193548    -0.72400
O7          O  0.47847975  0.05081678  0.34093173    -0.72300
O8          O  0.02907119  0.46812074  0.32483109    -0.72500
V9          V  0.01114414  0.50543829  0.39840233     1.35200
V10         V  0.50404727  0.00998568  0.33270893     1.35200
C11         C  0.04114358  0.45332973  0.35792732     0.76900
C12         C  0.47301241  0.06010033  0.37889576     0.77000
C13         C  0.45494304  0.47057627  0.36542627     0.76900
C14         C  0.05907271  0.04574760  0.36138703     0.76800
O15         O  0.01803065  0.45505927  0.07434905    -0.72300
O16         O  0.47518132  0.03764789  0.08494709    -0.72500
O17         O  0.03865299  0.02145067  0.07708115    -0.72400
O18         O  0.45413492  0.47179809  0.08754774    -0.72400
O19         O  0.46760141  0.46454333  0.15433901    -0.72300
O20         O  0.04091367  0.02405304  0.14613196    -0.72400
O21         O  0.47537654  0.03222614  0.15328721    -0.72300
O22         O  0.03234103  0.45537662  0.14146637    -0.72500
V23         V  0.99663575  0.49624352  0.08201889     1.35200
V24         V  0.50410728  0.99411612  0.14761934     1.35200
C25         C  0.03361276  0.44161795  0.10485463     0.76900
C26         C  0.46562921  0.04796389  0.11997962     0.77000
C27         C  0.05299565  0.03247967  0.11139320     0.76900
C28         C  0.44697044  0.46005559  0.12405991     0.76800
O29         O  0.12865134  0.21987530  0.03892010    -0.72300
O30         O  0.16073104  0.16405995  0.45110790    -0.72500
O31         O  0.16086933  0.16102811  0.03589323    -0.72400
O32         O  0.12822483  0.22374102  0.45291359    -0.72400
O33         O  0.17658522  0.25046030  0.45430882    -0.72300
O34         O  0.20871046  0.18831487  0.04240547    -0.72400
O35         O  0.20982056  0.18908499  0.45470296    -0.72300
O36         O  0.17590791  0.24878653  0.04100280    -0.72500
V37         V  0.14581836  0.19265175  0.49467609     1.35200
V38         V  0.19201303  0.21871935  0.49793673     1.35200
C39         C  0.14665175  0.24397463  0.05498647     0.76900
C40         C  0.19015885  0.16655040  0.43747971     0.77000
C41         C  0.18911840  0.16451203  0.05509593     0.76900
C42         C  0.14656216  0.24805378  0.43931327     0.76800
C43         C  0.32486569  0.39971583  0.35759754     0.86000
C44         C  0.32825179  0.36939919  0.38647035    -0.54300
C45         C  0.30003615  0.35671011  0.40349371     0.08900
C46         C  0.26793673  0.37366108  0.38376174     0.19900
C47         C  0.30226315  0.38486419  0.32089817    -0.55000
C48         C  0.27265640  0.37003501  0.33439270     0.09000
C49         C  0.30213136  0.42567115  0.37738474    -0.54500
C50         C  0.27277366  0.41371276  0.39257481     0.09600
H51         H  0.35298674  0.35945592  0.39438579     0.14100
H52         H  0.24407823  0.36193876  0.39404559    -0.00200
H53         H  0.30757830  0.38661524  0.28756585     0.14400
H54         H  0.31080008  0.45221845  0.38207869     0.14200
C55         C  0.32433800  0.39578960  0.14705324     0.86000
C56         C  0.30033577  0.37921773  0.17803981    -0.54300
C57         C  0.27112308  0.36631140  0.15973624     0.08900
C58         C  0.26835845  0.37196389  0.11021532     0.19900
C59         C  0.32894141  0.36856655  0.11327743    -0.55000
C60         C  0.30078722  0.35542245  0.09311262     0.09000
C61         C  0.30413594  0.42283861  0.12252135    -0.54500
C62         C  0.27446851  0.41210843  0.10371261     0.09600
H63         H  0.30596440  0.37786134  0.21191877     0.14100
H64         H  0.24474006  0.36090028  0.09649792    -0.00200
H65         H  0.35367433  0.36162344  0.10367692     0.14400
H66         H  0.31430341  0.44847464  0.11661549     0.14200
C67         C  0.17471289  0.09951941  0.14463793     0.86000
C68         C  0.19619732  0.11942590  0.17820632    -0.54300
C69         C  0.22471814  0.13503804  0.16295060     0.08900
C70         C  0.22906155  0.12843561  0.11392053     0.19900
C71         C  0.16829508  0.12579021  0.10953946    -0.55000
C72         C  0.19568817  0.14146735  0.09280517     0.10000
C73         C  0.19875365  0.07446327  0.12445739    -0.54500
C74         C  0.22703294  0.08793170  0.10857138     0.09600
H75         H  0.18978307  0.12026719  0.21130397     0.14100
H76         H  0.25204407  0.14042964  0.10092620    -0.00200
H77         H  0.14317690  0.13067429  0.09719863     0.14400
H78         H  0.19174827  0.04826641  0.11572054     0.14200
C79         C  0.18037972  0.10297240  0.34429124     0.86000
C80         C  0.17192041  0.12891607  0.37866581    -0.54300
C81         C  0.19841581  0.14361269  0.40088141     0.08900
C82         C  0.23269364  0.12976516  0.38605228     0.19900
C83         C  0.20427719  0.12182124  0.31601618    -0.55000
C84         C  0.23150899  0.13625911  0.33671337     0.09000
C85         C  0.20152423  0.07676681  0.36880560    -0.54500
C86         C  0.22900685  0.08940830  0.39010559     0.09600
H87         H  0.14620822  0.13433416  0.38606793     0.14100
H88         H  0.25500289  0.14104000  0.40341554    -0.00200
H89         H  0.20029492  0.12318597  0.28188803     0.14400
H90         H  0.19319917  0.05056142  0.37482262     0.14200
N91         N  0.25496586  0.44863786  0.49748387    -0.37100
N92         N  0.24970683  0.00251012  0.43388997    -0.57700
N93         N  0.25284599  0.05983451  0.50005380    -0.37100
N94         N  0.25126633  0.00208282  0.06314356    -0.57700
C95         C  0.24734137  0.42932887  0.46228940     0.26500
C96         C  0.24873281  0.42879488  0.03183529     0.26500
C97         C  0.23607090  0.07136013  0.46504716     0.26500
C98         C  0.23562037  0.07098139  0.03360525     0.26500
C99         C  0.25354323  0.47489440  0.40767292     0.35100
C100        C  0.25276648  0.03147925  0.40970301     0.35100
C101        C  0.25617356  0.47390876  0.08830399     0.35100
C102        C  0.25272631  0.03054598  0.08903891     0.35100
C103        C  0.23530593  0.39730707  0.47441690    -0.22400
C104        C  0.23607943  0.39698221  0.01806733    -0.22400
C105        C  0.20733418  0.08764294  0.47645244    -0.22400
C106        C  0.20692263  0.08711644  0.01950037    -0.22400
C107        C  0.25770066  0.48668400  0.36650328    -0.23500
C108        C  0.25785695  0.02212949  0.36795607    -0.23500
C109        C  0.25964571  0.48480489  0.13031915    -0.23500
C110        C  0.25782136  0.02023697  0.13073646    -0.23500
C111        C  0.25420849  0.43909425  0.42016963    -0.18800
C112        C  0.25685302  0.43823386  0.07460961    -0.18800
C113        C  0.24346503  0.06472288  0.07659358    -0.18800
C114        C  0.24435195  0.06549577  0.42277726    -0.18800
H115        H  0.22552860  0.37659265  0.45447291     0.14100
H116        H  0.22654335  0.37600335  0.03661068     0.14100
H117        H  0.18667099  0.09529924  0.45606491     0.14100
H118        H  0.18562752  0.09373780  0.03759217     0.14100
H119        H  0.26017888  0.47126840  0.33810367     0.12400
H120        H  0.25976187  0.03912445  0.34090583     0.12400
H121        H  0.26205516  0.46870311  0.15816217     0.12400
H122        H  0.25849322  0.03646845  0.15880441     0.12400
H123        H  0.26803942  0.47223818  0.49811670     0.25600
H124        H  0.27507095  0.04638830  0.50098734     0.25600
O125        O  0.37031038  0.27722820  0.04133820    -0.72300
O126        O  0.33530549  0.33713116  0.45852272    -0.72500
O127        O  0.33624617  0.33537345  0.04115257    -0.72400
O128        O  0.37035740  0.27949950  0.45594211    -0.72400
O129        O  0.32413207  0.24886862  0.45393271    -0.72300
O130        O  0.28794537  0.30889463  0.03982754    -0.72400
O131        O  0.28814195  0.30859401  0.45225106    -0.72300
O132        O  0.32275081  0.24881140  0.04023427    -0.72500
V133        V  0.35183164  0.30670473  0.49912667     1.35200
V134        V  0.30641587  0.27917123  0.49654145     1.35200
C135        C  0.35249014  0.25278922  0.05528502     0.76900
C136        C  0.30677203  0.33331352  0.44024182     0.77000
C137        C  0.30731851  0.33236475  0.05584812     0.76900
C138        C  0.35377085  0.25408814  0.44083575     0.76800
O139        O  0.22670155  0.37334452  0.28459777    -0.72300
O140        O  0.16181490  0.33564653  0.20704719    -0.72500
O141        O  0.16784808  0.34010512  0.29037147    -0.72400
O142        O  0.22094117  0.36865892  0.19901413    -0.72400
O143        O  0.24903464  0.32173185  0.20575914    -0.72300
O144        O  0.18669839  0.28836550  0.28953613    -0.72400
O145        O  0.18792435  0.28764875  0.20187652    -0.72300
O146        O  0.24780866  0.32266313  0.29255876    -0.72500
V147        V  0.19474495  0.35323919  0.24528129     1.35200
V148        V  0.21760091  0.30575241  0.24737610     1.35200
C149        C  0.24769149  0.35439004  0.30321111     0.76900
C150        C  0.16430619  0.30672408  0.18899985     0.77000
C151        C  0.16696244  0.30983559  0.30526325     0.76900
C152        C  0.24520363  0.35084726  0.18782313     0.76800
C153        C  0.10195597  0.32690746  0.38953735     0.86000
C154        C  0.11847873  0.30432556  0.42412207    -0.54300
C155        C  0.13195577  0.27427138  0.40915883     0.08900
C156        C  0.12694056  0.26957946  0.35965634     0.19900
C157        C  0.12910091  0.33187393  0.35696057    -0.55000
C158        C  0.14303614  0.30324419  0.34086256     0.09000
C159        C  0.07672469  0.30314953  0.36623057    -0.54500
C160        C  0.08800869  0.27310090  0.35156429     0.09600
H161        H  0.11898800  0.31127389  0.45748937     0.14100
H162        H  0.13701316  0.24540332  0.34678720    -0.00200
H163        H  0.13536731  0.35705827  0.34458218     0.14400
H164        H  0.05232912  0.31160065  0.35504490     0.14200
C165        C  0.10591638  0.32459178  0.09399148     0.86000
C166        C  0.13148932  0.32940699  0.13054038    -0.54300
C167        C  0.14156210  0.30041468  0.15071262     0.08900
C168        C  0.12360274  0.26732357  0.13152874     0.19900
C169        C  0.12182927  0.29964436  0.06425134    -0.55000
C170        C  0.13144471  0.26972141  0.08280243     0.09000
C171        C  0.07696193  0.30472043  0.11450627    -0.54500
C172        C  0.08477939  0.27467015  0.13382238     0.09600
H173        H  0.14023360  0.35450275  0.14166845     0.14100
H174        H  0.13120721  0.24300250  0.14712539    -0.00200
H175        H  0.12542632  0.30528293  0.03096719     0.14400
H176        H  0.05245484  0.31582255  0.11781779     0.14200
C177        C  0.39590404  0.17668934  0.10990402     0.86000
C178        C  0.36716487  0.17317289  0.13904263    -0.54300
C179        C  0.35521917  0.20230691  0.15566951     0.08900
C180        C  0.37169386  0.23521576  0.13534395     0.19900
C181        C  0.38055153  0.19777803  0.07302097    -0.55000
C182        C  0.36712352  0.22832192  0.08630065     0.09000
C183        C  0.42183478  0.20194185  0.12864144    -0.54500
C184        C  0.41072447  0.23207702  0.14366211     0.09600
H185        H  0.35739182  0.14753735  0.14671196     0.14100
H186        H  0.36099451  0.26001752  0.14481668    -0.00200
H187        H  0.38135158  0.19125437  0.03973641     0.14400
H188        H  0.44784390  0.19455120  0.13277199     0.14200
C189        C  0.39816907  0.17536467  0.39855825     0.86000
C190        C  0.38234680  0.19922314  0.43020967    -0.54300
C191        C  0.37078168  0.22902227  0.41307214     0.08900
C192        C  0.37740645  0.23292248  0.36440328     0.19900
C193        C  0.37197098  0.17060150  0.36287500    -0.55000
C194        C  0.36033121  0.19986088  0.34447036     0.09000
C195        C  0.42551432  0.19668070  0.37672901    -0.54500
C196        C  0.41627383  0.22696635  0.35820517     0.09600
H197        H  0.37979785  0.19270522  0.46344494     0.14100
H198        H  0.36768479  0.25773701  0.35310727    -0.00200
H199        H  0.36447394  0.14544169  0.35067761     0.14400
H200        H  0.44976666  0.18574221  0.37132483     0.14200
N201        N  0.05564319  0.24887328  0.24186636    -0.37100
N202        N  0.49892044  0.25748286  0.18019416    -0.57700
N203        N  0.44871462  0.25155129  0.24868801    -0.37100
N204        N  0.50248514  0.24766752  0.31078905    -0.57700
C205        C  0.06768277  0.26665855  0.20832217     0.26500
C206        C  0.06881155  0.26506370  0.27697009     0.26500
C207        C  0.42808990  0.25720222  0.21445667     0.26500
C208        C  0.42980084  0.25143942  0.28408345     0.26500
C209        C  0.02500087  0.25550358  0.15319246     0.35100
C210        C  0.46999992  0.25554410  0.15605077     0.35100
C211        C  0.03175444  0.24532750  0.33396596     0.35100
C212        C  0.47662955  0.24344322  0.33782686     0.35100
C213        C  0.08623662  0.29510031  0.22215612    -0.22400
C214        C  0.08693398  0.29418429  0.26511375    -0.22400
C215        C  0.39609267  0.26182315  0.22832764    -0.22400
C216        C  0.39706886  0.25815208  0.27141855    -0.22400
C217        C  0.01261169  0.25299345  0.11175769    -0.23500
C218        C  0.47815457  0.25336288  0.11345826    -0.23500
C219        C  0.02442659  0.24027933  0.37627148    -0.23500
C220        C  0.49000833  0.23964052  0.37878282    -0.23500
C221        C  0.05966325  0.26059065  0.16534064    -0.18800
C222        C  0.06431384  0.25548861  0.31964061    -0.18800
C223        C  0.44110368  0.24301312  0.32642748    -0.18800
C224        C  0.43614995  0.25261201  0.17118791    -0.18800
H225        H  0.09497803  0.31657661  0.20357007     0.14100
H226        H  0.09664867  0.31498389  0.28480261     0.14100
H227        H  0.37372497  0.26742535  0.21013069     0.14100
H228        H  0.37520486  0.26064101  0.28954877     0.14100
H229        H  0.02694347  0.25175096  0.08322306     0.12400
H230        H  0.46087196  0.25170265  0.08627611     0.12400
H231        H  0.04212415  0.23934474  0.40300381     0.12400
H232        H  0.47643951  0.23767243  0.40787790     0.12400
H233        H  0.04056510  0.22650074  0.24080857     0.25600
H234        H  0.47308747  0.24314649  0.24660763     0.25600
O235        O  0.27844220  0.13282761  0.29364344    -0.72300
O236        O  0.33297275  0.16571198  0.20723143    -0.72500
O237        O  0.33719912  0.16515251  0.28990235    -0.72400
O238        O  0.27386534  0.13228230  0.20773121    -0.72400
O239        O  0.24944056  0.18160044  0.20777883    -0.72300
O240        O  0.31467244  0.21520664  0.29380187    -0.72400
O241        O  0.31085268  0.21601924  0.20621258    -0.72300
O242        O  0.25404190  0.18220989  0.29496690    -0.72500
V243        V  0.30509758  0.15026433  0.24954731     1.35200
V244        V  0.28250626  0.19803172  0.25057927     1.35200
C245        C  0.25704885  0.15192580  0.30957676     0.76900
C246        C  0.33199622  0.19564076  0.19153128     0.77000
C247        C  0.33668706  0.19444403  0.30722083     0.76900
C248        C  0.25072289  0.15085143  0.19328255     0.76800
C249        C  0.04187478  0.38687814  0.06483447    -0.02400
C250        C  0.05383583  0.41187583  0.09531447     0.07300
C251        C  0.08778953  0.41210960  0.10847963    -0.02500
C252        C  0.10880097  0.38924402  0.08904234    -0.02500
C253        C  0.09473227  0.35806999  0.07343207     0.07500
C254        C  0.06212286  0.35898909  0.05539501    -0.02700
Br255      Br  0.04379660  0.31923857  0.02518217    -0.01200
Br256      Br  0.49750098  0.38810985  0.03863663    -0.01300
Br257      Br  0.15546651  0.40076135  0.08169905    -0.01200
Br258      Br  0.10518756  0.43884414  0.15623105    -0.01200
C259        C  0.11154398  0.10051784  0.15557371    -0.02400
C260        C  0.14150366  0.08164698  0.15767607     0.07300
C261        C  0.13770922  0.04596270  0.14967783    -0.02500
C262        C  0.11322225  0.03474048  0.11978470    -0.02500
C263        C  0.08393461  0.05341584  0.11458010     0.07500
C264        C  0.08258289  0.08603399  0.13466598    -0.02700
Br265      Br  0.04131795  0.11078263  0.13224406    -0.01200
Br266      Br  0.11098634  0.14633441  0.17912712    -0.01300
Br267      Br  0.12178712  0.49741243  0.08182031    -0.01200
Br268      Br  0.16578232  0.01309277  0.17863761    -0.01200
C269        C  0.40826504  0.11678649  0.07822624    -0.02400
C270        C  0.41171388  0.14122074  0.11133452     0.07300
C271        C  0.42643272  0.13045784  0.15170846    -0.02500
C272        C  0.44346798  0.09966953  0.15509061    -0.02500
C273        C  0.44363830  0.07763278  0.11993102     0.07500
C274        C  0.42348026  0.08473551  0.08303051    -0.02700
Br275      Br  0.41338614  0.04937213  0.04035968    -0.01200
Br276      Br  0.37938268  0.12381026  0.02888514    -0.01300
Br277      Br  0.46642392  0.08848899  0.20858049    -0.01200
Br278      Br  0.42280457  0.15605928  0.20516380    -0.01200
C279        C  0.38745677  0.39092205  0.16133780    -0.02400
C280        C  0.35799878  0.40988631  0.16618333     0.07300
C281        C  0.36235093  0.44577583  0.17019454    -0.02500
C282        C  0.38923265  0.46228309  0.15031173    -0.02500
C283        C  0.41538449  0.44251640  0.13444876     0.07500
C284        C  0.41583412  0.40708054  0.14422299    -0.02700
Br285      Br  0.45529975  0.38081332  0.13509249    -0.01200
Br286      Br  0.38827979  0.34282081  0.17661088    -0.01300
Br287      Br  0.38957468  0.01159491  0.14543846    -0.01200
Br288      Br  0.33084810  0.47141361  0.20209468    -0.01200
C289        C  0.11817869  0.04324878  0.35347944    -0.02400
C290        C  0.09026867  0.06412293  0.35495109     0.07300
C291        C  0.09043988  0.09587412  0.33292890    -0.02500
C292        C  0.12084752  0.10856887  0.31704586    -0.02500
C293        C  0.14937217  0.08783537  0.32100523     0.07500
C294        C  0.14338234  0.05247549  0.32611557    -0.02700
Br295      Br  0.17262496  0.01900462  0.30274870    -0.01200
Br296      Br  0.12513723  0.50825480  0.39556031    -0.01300
Br297      Br  0.12523764  0.15552532  0.29782265    -0.01200
Br298      Br  0.05057515  0.12262793  0.32752866    -0.01200
C299        C  0.03602001  0.39253927  0.37751943    -0.02400
C300        C  0.05599128  0.41890533  0.35974606     0.07300
C301        C  0.09082771  0.41737503  0.36614218    -0.02500
C302        C  0.10475757  0.39242255  0.39335035    -0.02500
C303        C  0.08614318  0.36182783  0.40161137     0.07500
C304        C  0.05070867  0.36481203  0.39928783    -0.02700
Br305      Br  0.02151105  0.33062741  0.42438450    -0.01200
Br306      Br  0.48808595  0.39357777  0.37082673    -0.01300
Br307      Br  0.15050064  0.39771409  0.41453746    -0.01200
Br308      Br  0.11916480  0.44276491  0.32886516    -0.01200
C309        C  0.41336270  0.43127756  0.32623824    -0.02400
C310        C  0.42362809  0.44991509  0.36372593     0.07300
C311        C  0.40326142  0.44968067  0.39902765    -0.02500
C312        C  0.37304158  0.43109826  0.39725570    -0.02500
C313        C  0.36014279  0.41617878  0.35773549     0.07500
C314        C  0.38198856  0.41392685  0.32369347    -0.02700
Br315      Br  0.37294023  0.38218443  0.27740607    -0.01200
Br316      Br  0.44213026  0.42799159  0.27788851    -0.01300
Br317      Br  0.35145340  0.42527928  0.45186451    -0.01200
Br318      Br  0.41456195  0.47730209  0.44943592    -0.01200
C319        C  0.41695955  0.08442329  0.38636128    -0.02400
C320        C  0.45200145  0.08877364  0.39024233     0.07300
C321        C  0.46568919  0.11538562  0.41690607    -0.02500
C322        C  0.44476341  0.14102593  0.43178544    -0.02500
C323        C  0.41121322  0.14143176  0.41686876     0.07500
C324        C  0.39653749  0.10962338  0.40319625    -0.02700
Br325      Br  0.34943427  0.09986941  0.41095877    -0.01200
Br326      Br  0.39697597  0.04363102  0.35994831    -0.01300
Br327      Br  0.46194080  0.17729178  0.46907348    -0.01200
Br328      Br  0.01285885  0.11755586  0.43223348    -0.01200
O329        O  0.03776270  0.46728460  0.89331898    -0.72300
O330        O  0.48510221  0.04315117  0.90907653    -0.72500
O331        O  0.47240035  0.47582930  0.89947188    -0.72400
O332        O  0.04997233  0.03497221  0.89727891    -0.72400
O333        O  0.04252503  0.03707551  0.82852101    -0.72300
O334        O  0.46456884  0.48405882  0.83194322    -0.72400
O335        O  0.47848642  0.05082205  0.84093710    -0.72300
O336        O  0.02907403  0.46812466  0.82483416    -0.72500
V337        V  0.01115270  0.50544362  0.89840661     1.35200
V338        V  0.50405258  0.00999019  0.83271297     1.35200
C339        C  0.04114995  0.45333484  0.85792927     0.76900
C340        C  0.47301873  0.06010466  0.87890141     0.77000
C341        C  0.45495060  0.47058012  0.86543403     0.76900
C342        C  0.05907855  0.04575398  0.86138575     0.76800
O343        O  0.01803176  0.45506258  0.57435089    -0.72300
O344        O  0.47518494  0.03765177  0.58494692    -0.72500
O345        O  0.03865630  0.02145316  0.57708745    -0.72400
O346        O  0.45413672  0.47180267  0.58754397    -0.72400
O347        O  0.46759998  0.46454700  0.65433602    -0.72300
O348        O  0.04091474  0.02405383  0.64613840    -0.72400
O349        O  0.47537730  0.03222914  0.65328688    -0.72300
O350        O  0.03233941  0.45537758  0.64146901    -0.72500
V351        V  0.99663820  0.49624731  0.58202098     1.35200
V352        V  0.50410712  0.99411848  0.64762034     1.35200
C353        C  0.03361228  0.44162002  0.60485675     0.76900
C354        C  0.46563142  0.04796719  0.61997890     0.77000
C355        C  0.05299806  0.03248103  0.61140060     0.76900
C356        C  0.44697024  0.46006017  0.62405547     0.76800
O357        O  0.12865509  0.21987577  0.53892497    -0.72300
O358        O  0.16073206  0.16405667  0.95110893    -0.72500
O359        O  0.16087292  0.16102845  0.53589154    -0.72400
O360        O  0.12822610  0.22373830  0.95290892    -0.72400
O361        O  0.17658417  0.25046240  0.95431517    -0.72300
O362        O  0.20871132  0.18831994  0.54240789    -0.72400
O363        O  0.20981918  0.18908716  0.95470065    -0.72300
O364        O  0.17590872  0.24879215  0.54099693    -0.72500
V365        V  0.14581714  0.19264999  0.99467448     1.35200
V366        V  0.19201190  0.21871762  0.99793844     1.35200
C367        C  0.14665447  0.24397824  0.55498585     0.76900
C368        C  0.19015897  0.16655068  0.93747852     0.77000
C369        C  0.18912089  0.16451474  0.55509624     0.76900
C370        C  0.14656267  0.24805417  0.93931472     0.76800
C371        C  0.32487172  0.39972089  0.85759993     0.86000
C372        C  0.32825743  0.36940555  0.88647474    -0.54300
C373        C  0.30004129  0.35671506  0.90349559     0.08900
C374        C  0.26794225  0.37366489  0.88376129     0.19900
C375        C  0.30227081  0.38486711  0.82089968    -0.55000
C376        C  0.27266356  0.37003773  0.83439304     0.09000
C377        C  0.30213570  0.42567595  0.87738405    -0.54500
C378        C  0.27277784  0.41371692  0.89257332     0.09600
H379        H  0.35299245  0.35946312  0.89439164     0.14100
H380        H  0.24408359  0.36194211  0.89404375    -0.00200
H381        H  0.30758728  0.38661747  0.78756766     0.14400
H382        H  0.31080366  0.45222354  0.88207725     0.14200
C383        C  0.32434078  0.39579269  0.64705392     0.86000
C384        C  0.30033891  0.37922127  0.67804116    -0.54300
C385        C  0.27112657  0.36631386  0.65973795     0.08900
C386        C  0.26836160  0.37196499  0.61021712     0.19900
C387        C  0.32894457  0.36856875  0.61327880    -0.55000
C388        C  0.30079037  0.35542383  0.59311469     0.09000
C389        C  0.30413814  0.42284069  0.62252130    -0.54500
C390        C  0.27447084  0.41210928  0.60371340     0.09600
H391        H  0.30596747  0.37786602  0.71192025     0.14100
H392        H  0.24474342  0.36090060  0.59650017    -0.00200
H393        H  0.35367746  0.36162573  0.60367803     0.14400
H394        H  0.31430463  0.44847705  0.61661504     0.14200
C395        C  0.17471423  0.09952446  0.64464053     0.86000
C396        C  0.19619941  0.11943128  0.67820752    -0.54300
C397        C  0.22472051  0.13504188  0.66295080     0.08900
C398        C  0.22906351  0.12843767  0.61392112     0.19900
C399        C  0.16829684  0.12579453  0.60954108    -0.55000
C400        C  0.19569039  0.14147036  0.59280587     0.10000
C401        C  0.19875385  0.07446681  0.62446046    -0.54500
C402        C  0.22703364  0.08793342  0.60857394     0.09600
H403        H  0.18978516  0.12027407  0.71130499     0.14100
H404        H  0.25204632  0.14043053  0.60092613    -0.00200
H405        H  0.14317871  0.13067942  0.59720067     0.14400
H406        H  0.19174692  0.04827026  0.61572371     0.14200
C407        C  0.18038285  0.10297711  0.84428504     0.86000
C408        C  0.17192205  0.12891953  0.87866059    -0.54300
C409        C  0.19841671  0.14361533  0.90087847     0.08900
C410        C  0.23269521  0.12976904  0.88605021     0.19900
C411        C  0.20428098  0.12182735  0.81601248    -0.55000
C412        C  0.23151206  0.13626464  0.83671158     0.09000
C413        C  0.20152723  0.07677080  0.86879898    -0.54500
C414        C  0.22900879  0.08941212  0.89010168     0.09600
H415        H  0.14620960  0.13433742  0.88606173     0.14100
H416        H  0.25500377  0.14104364  0.90341516    -0.00200
H417        H  0.20029995  0.12319308  0.78188433     0.14400
H418        H  0.19320289  0.05056476  0.87481316     0.14200
N419        N  0.25496528  0.44864061  0.99748215    -0.37100
N420        N  0.24970867  0.00251395  0.93388667    -0.57700
N421        N  0.25284725  0.05983676  0.00005027    -0.37100
N422        N  0.25126557  0.00208236  0.56314566    -0.57700
C423        C  0.24734252  0.42933204  0.96228672     0.26500
C424        C  0.24873283  0.42879349  0.53183763     0.26500
C425        C  0.23607221  0.07136292  0.96504368     0.26500
C426        C  0.23561993  0.07098092  0.53360851     0.26500
C427        C  0.25354626  0.47489819  0.90767037     0.35100
C428        C  0.25276871  0.03148301  0.90969964     0.35100
C429        C  0.25617337  0.47390841  0.58830553     0.35100
C430        C  0.25272436  0.03054524  0.58904182     0.35100
C431        C  0.23530827  0.39730948  0.97441309    -0.22400
C432        C  0.23607768  0.39698097  0.51807121    -0.22400
C433        C  0.20733479  0.08764422  0.97644906    -0.22400
C434        C  0.20692260  0.08711663  0.51950367    -0.22400
C435        C  0.25770495  0.48668782  0.86650086    -0.23500
C436        C  0.25786076  0.02213336  0.86795310    -0.23500
C437        C  0.25964455  0.48480409  0.63032094    -0.23500
C438        C  0.25781892  0.02023576  0.63073918    -0.23500
C439        C  0.25421146  0.43909804  0.92016738    -0.18800
C440        C  0.25685370  0.43823354  0.57461118    -0.18800
C441        C  0.24346439  0.06472270  0.57659666    -0.18800
C442        C  0.24435345  0.06549926  0.92277363    -0.18800
H443        H  0.22553225  0.37659493  0.95446850     0.14100
H444        H  0.22654028  0.37600339  0.53661572     0.14100
H445        H  0.18667163  0.09530029  0.95606126     0.14100
H446        H  0.18562794  0.09373921  0.53759559     0.14100
H447        H  0.26018423  0.47127224  0.83810145     0.12400
H448        H  0.25976654  0.03912832  0.84090297     0.12400
H449        H  0.26205431  0.46870200  0.65816367     0.12400
H450        H  0.25849024  0.03646686  0.65880743     0.12400
H451        H  0.26803778  0.47224109  0.99811567     0.25600
H452        H  0.27507258  0.04639132  0.00098365     0.25600
O453        O  0.37031273  0.27722835  0.54133411    -0.72300
O454        O  0.33530960  0.33713012  0.95852173    -0.72500
O455        O  0.33624838  0.33537312  0.54115452    -0.72400
O456        O  0.37036040  0.27949807  0.95594569    -0.72400
O457        O  0.32413277  0.24887093  0.95392745    -0.72300
O458        O  0.28794633  0.30889671  0.53982949    -0.72400
O459        O  0.28814389  0.30859700  0.95224953    -0.72300
O460        O  0.32275181  0.24881406  0.54023868    -0.72500
V461        V  0.35183226  0.30670403  0.99912779     1.35200
V462        V  0.30641611  0.27917123  0.99653828     1.35200
C463        C  0.35249252  0.25279081  0.55528452     0.76900
C464        C  0.30677585  0.33331538  0.94024108     0.77000
C465        C  0.30732078  0.33236564  0.55585041     0.76900
C466        C  0.35377275  0.25408938  0.94083412     0.76800
O467        O  0.22670545  0.37334672  0.78460247    -0.72300
O468        O  0.16182049  0.33565093  0.70704731    -0.72500
O469        O  0.16785103  0.34010731  0.79037253    -0.72400
O470        O  0.22094696  0.36866341  0.69901904    -0.72400
O471        O  0.24903696  0.32173355  0.70575797    -0.72300
O472        O  0.18670476  0.28836902  0.78954070    -0.72400
O473        O  0.18792672  0.28765096  0.70188040    -0.72300
O474        O  0.24781602  0.32266634  0.79255730    -0.72500
V475        V  0.19474953  0.35324234  0.74528407     1.35200
V476        V  0.21760534  0.30575523  0.74737773     1.35200
C477        C  0.24769806  0.35439279  0.80321172     0.76900
C478        C  0.16431026  0.30672755  0.68900149     0.77000
C479        C  0.16696716  0.30983835  0.80526619     0.76900
C480        C  0.24520740  0.35085028  0.68782496     0.76800
C481        C  0.10195943  0.32691016  0.88953904     0.86000
C482        C  0.11848047  0.30432714  0.92412412    -0.54300
C483        C  0.13195736  0.27427282  0.90916082     0.08900
C484        C  0.12694386  0.26958198  0.85965811     0.19900
C485        C  0.12910596  0.33187666  0.85696422    -0.55000
C486        C  0.14304084  0.30324682  0.84086581     0.09000
C487        C  0.07672861  0.30315316  0.86623008    -0.54500
C488        C  0.08801235  0.27310422  0.85156465     0.09600
H489        H  0.11898867  0.31127490  0.95749152     0.14100
H490        H  0.13701632  0.24540581  0.84678885    -0.00200
H491        H  0.13537396  0.35706117  0.84458752     0.14400
H492        H  0.05233369  0.31160492  0.85504280     0.14200
C493        C  0.10591884  0.32459477  0.59399395     0.86000
C494        C  0.13149243  0.32940997  0.63054217    -0.54300
C495        C  0.14156602  0.30041776  0.65071393     0.08900
C496        C  0.12360696  0.26732647  0.63152945     0.19900
C497        C  0.12183158  0.29964805  0.56425262    -0.55000
C498        C  0.13144796  0.26972498  0.58280278     0.09000
C499        C  0.07696522  0.30472269  0.61450911    -0.54500
C500        C  0.08478353  0.27467216  0.63382390     0.09600
H501        H  0.14023622  0.35450574  0.64167056     0.14100
H502        H  0.13121200  0.24300531  0.64712542    -0.00200
H503        H  0.12542748  0.30528704  0.53096830     0.14400
H504        H  0.05245798  0.31582429  0.61782154     0.14200
C505        C  0.39590654  0.17669098  0.60990091     0.86000
C506        C  0.36716726  0.17317449  0.63903928    -0.54300
C507        C  0.35522224  0.20230846  0.65566671     0.08900
C508        C  0.37169733  0.23521728  0.63534176     0.19900
C509        C  0.38055435  0.19777990  0.57301822    -0.55000
C510        C  0.36712692  0.22832380  0.58629870     0.09000
C511        C  0.42183774  0.20194306  0.62863813    -0.54500
C512        C  0.41072791  0.23207813  0.64365945     0.09600
H513        H  0.35739362  0.14753903  0.64670799     0.14100
H514        H  0.36099812  0.26001911  0.64481440    -0.00200
H515        H  0.38135376  0.19125613  0.53973367     0.14400
H516        H  0.44784675  0.19455192  0.63276840     0.14200
C517        C  0.39817273  0.17536788  0.89855621     0.86000
C518        C  0.38234897  0.19922544  0.93020706    -0.54300
C519        C  0.37078361  0.22902431  0.91306963     0.08900
C520        C  0.37740930  0.23292517  0.86440100     0.19900
C521        C  0.37197605  0.17060396  0.86287149    -0.55000
C522        C  0.36033569  0.19986322  0.84446706     0.09000
C523        C  0.42551801  0.19668480  0.87672831    -0.54500
C524        C  0.41627693  0.22697013  0.85820395     0.09600
H525        H  0.37979967  0.19270727  0.96344228     0.14100
H526        H  0.36768728  0.25773954  0.85310479    -0.00200
H527        H  0.36448070  0.14544396  0.85067304     0.14400
H528        H  0.44977074  0.18574688  0.87132492     0.14200
N529        N  0.05564762  0.24887482  0.74186747    -0.37100
N530        N  0.49892405  0.25748308  0.68019382    -0.57700
N531        N  0.44871755  0.25155305  0.74868615    -0.37100
N532        N  0.50248813  0.24767134  0.81078839    -0.57700
C533        C  0.06768716  0.26665982  0.70832320     0.26500
C534        C  0.06881636  0.26506523  0.77697088     0.26500
C535        C  0.42809297  0.25720274  0.71445437     0.26500
C536        C  0.42980355  0.25144132  0.78408127     0.26500
C537        C  0.02500591  0.25550282  0.65319286     0.35100
C538        C  0.47000397  0.25554351  0.65604960     0.35100
C539        C  0.03175773  0.24533161  0.83396619     0.35100
C540        C  0.47663214  0.24344802  0.83782581     0.35100
C541        C  0.08624157  0.29510134  0.72215690    -0.22400
C542        C  0.08693946  0.29418532  0.76511437    -0.22400
C543        C  0.39609547  0.26182314  0.72832485    -0.22400
C544        C  0.39707142  0.25815270  0.77141580    -0.22400
C545        C  0.01261765  0.25299138  0.61175782    -0.23500
C546        C  0.47815955  0.25336131  0.61345745    -0.23500
C547        C  0.02442910  0.24028552  0.87627180    -0.23500
C548        C  0.49001026  0.23964672  0.87878229    -0.23500
C549        C  0.05966793  0.26059146  0.66534174    -0.18800
C550        C  0.06431764  0.25549142  0.81964138    -0.18800
C551        C  0.44110642  0.24301671  0.82642580    -0.18800
C552        C  0.43615361  0.25261222  0.67118586    -0.18800
H553        H  0.09498292  0.31657767  0.70357094     0.14100
H554        H  0.09665476  0.31498481  0.78480304     0.14100
H555        H  0.37372775  0.26742498  0.71012785     0.14100
H556        H  0.37520729  0.26064164  0.78954577     0.14100
H557        H  0.02695012  0.25174854  0.58322377     0.12400
H558        H  0.46087755  0.25170051  0.58627471     0.12400
H559        H  0.04212616  0.23935196  0.90300475     0.12400
H560        H  0.47644093  0.23767943  0.90787706     0.12400
H561        H  0.04056895  0.22650229  0.74080995     0.25600
H562        H  0.47309103  0.24314904  0.74660663     0.25600
O563        O  0.27844590  0.13283195  0.79364307    -0.72300
O564        O  0.33297526  0.16571349  0.70722822    -0.72500
O565        O  0.33720339  0.16515504  0.78989921    -0.72400
O566        O  0.27386747  0.13228529  0.70773089    -0.72400
O567        O  0.24944433  0.18160437  0.70777731    -0.72300
O568        O  0.31467738  0.21520953  0.79379902    -0.72400
O569        O  0.31085691  0.21602164  0.70621019    -0.72300
O570        O  0.25404626  0.18221463  0.79496533    -0.72500
V571        V  0.30510077  0.15026715  0.74954554     1.35200
V572        V  0.28251058  0.19803517  0.75057718     1.35200
C573        C  0.25705289  0.15193079  0.80957604     0.76900
C574        C  0.33199948  0.19564244  0.69152839     0.77000
C575        C  0.33669172  0.19444655  0.80721766     0.76900
C576        C  0.25072571  0.15085503  0.69328187     0.76800
C577        C  0.04187646  0.38688174  0.56483382    -0.02400
C578        C  0.05383565  0.41187832  0.59531639     0.07300
C579        C  0.08778866  0.41211173  0.60848456    -0.02500
C580        C  0.10880107  0.38924711  0.58904754    -0.02500
C581        C  0.09473336  0.35807303  0.57343615     0.07500
C582        C  0.06212430  0.35899171  0.55539763    -0.02700
Br583      Br  0.04379773  0.31924031  0.52518686    -0.01200
Br584      Br  0.49750483  0.38811527  0.53862904    -0.01300
Br585      Br  0.15546610  0.40076658  0.58170399    -0.01200
Br586      Br  0.10518447  0.43884466  0.65623875    -0.01200
C587        C  0.11154524  0.10052324  0.65557672    -0.02400
C588        C  0.14150528  0.08165308  0.65768139     0.07300
C589        C  0.13771133  0.04596794  0.64968887    -0.02500
C590        C  0.11322462  0.03474273  0.61979717    -0.02500
C591        C  0.08393682  0.05341736  0.61458938     0.07500
C592        C  0.08258420  0.08603690  0.63467153    -0.02700
Br593      Br  0.04131859  0.11078426  0.63224729    -0.01200
Br594      Br  0.11098647  0.14634126  0.67912553    -0.01300
Br595      Br  0.12179252  0.49741413  0.58183500    -0.01200
Br596      Br  0.16578749  0.01310124  0.67864967    -0.01200
C597        C  0.40826689  0.11678838  0.57822394    -0.02400
C598        C  0.41171590  0.14122266  0.61133193     0.07300
C599        C  0.42643446  0.13046027  0.65170621    -0.02500
C600        C  0.44346984  0.09967233  0.65508878    -0.02500
C601        C  0.44364050  0.07763562  0.61992930     0.07500
C602        C  0.42348290  0.08473795  0.58302817    -0.02700
Br603      Br  0.41339115  0.04937527  0.54035571    -0.01200
Br604      Br  0.37938254  0.12381125  0.52888433    -0.01300
Br605      Br  0.46642615  0.08849281  0.70857879    -0.01200
Br606      Br  0.42280605  0.15606213  0.70516134    -0.01200
C607        C  0.38745906  0.39092708  0.66133759    -0.02400
C608        C  0.35800097  0.40989066  0.66618408     0.07300
C609        C  0.36235244  0.44578045  0.67019287    -0.02500
C610        C  0.38923224  0.46228758  0.65030592    -0.02500
C611        C  0.41538394  0.44252095  0.63444239     0.07500
C612        C  0.41583450  0.40708530  0.64421785    -0.02700
Br613      Br  0.45529866  0.38081759  0.63508090    -0.01200
Br614      Br  0.38828371  0.34282652  0.67661373    -0.01300
Br615      Br  0.38957163  0.01159880  0.64542799    -0.01200
Br616      Br  0.33085090  0.47141868  0.70209456    -0.01200
C617        C  0.11818388  0.04325494  0.85347238    -0.02400
C618        C  0.09027424  0.06412948  0.85494663     0.07300
C619        C  0.09044472  0.09588044  0.83292361    -0.02500
C620        C  0.12085167  0.10857416  0.81703691    -0.02500
C621        C  0.14937629  0.08784068  0.82099583     0.07500
C622        C  0.14338595  0.05248097  0.82610585    -0.02700
Br623      Br  0.17262762  0.01900979  0.80273808    -0.01200
Br624      Br  0.12514439  0.50826214  0.89555462    -0.01300
Br625      Br  0.12524213  0.15552969  0.79781064    -0.01200
Br626      Br  0.05058066  0.12263567  0.82752836    -0.01200
C627        C  0.03602418  0.39254343  0.87751928    -0.02400
C628        C  0.05599636  0.41890959  0.85974752     0.07300
C629        C  0.09083257  0.41737818  0.86614501    -0.02500
C630        C  0.10476114  0.39242519  0.89335343    -0.02500
C631        C  0.08614627  0.36183053  0.90161277     0.07500
C632        C  0.05071175  0.36481523  0.89928719    -0.02700
Br633      Br  0.02151244  0.33063012  0.92438024    -0.01200
Br634      Br  0.48809123  0.39358159  0.87082513    -0.01300
Br635      Br  0.15050294  0.39771689  0.91454470    -0.01200
Br636      Br  0.11917128  0.44276654  0.82886854    -0.01200
C637        C  0.41337073  0.43128105  0.82624586    -0.02400
C638        C  0.42363611  0.44991779  0.86373421     0.07300
C639        C  0.40326892  0.44968324  0.89903544    -0.02500
C640        C  0.37304644  0.43110492  0.89726058    -0.02500
C641        C  0.36014893  0.41618457  0.85773994     0.07500
C642        C  0.38199664  0.41393032  0.82370021    -0.02700
Br643      Br  0.37295091  0.38218473  0.77741529    -0.01200
Br644      Br  0.44213818  0.42799651  0.77789575    -0.01300
Br645      Br  0.35145293  0.42529182  0.95186679    -0.01200
Br646      Br  0.41457379  0.47729843  0.94944763    -0.01200
C647        C  0.41696472  0.08442532  0.88636738    -0.02400
C648        C  0.45200657  0.08877697  0.89024834     0.07300
C649        C  0.46569330  0.11539046  0.91691050    -0.02500
C650        C  0.44476663  0.14103106  0.93178700    -0.02500
C651        C  0.41121704  0.14143580  0.91686808     0.07500
C652        C  0.39654173  0.10962676  0.90319752    -0.02700
Br653      Br  0.34943764  0.09987427  0.91095582    -0.01200
Br654      Br  0.39698249  0.04362955  0.85996148    -0.01300
Br655      Br  0.46194165  0.17729851  0.96907443    -0.01200
Br656      Br  0.01286317  0.11756145  0.93224191    -0.01200
O657        O  0.03775197  0.96727762  0.39331704    -0.72300
O658        O  0.48509571  0.54314740  0.40907156    -0.72500
O659        O  0.47239085  0.97582595  0.39946517    -0.72400
O660        O  0.04996549  0.53496404  0.39727900    -0.72400
O661        O  0.04251987  0.53707158  0.32852106    -0.72300
O662        O  0.46456391  0.98405273  0.33193525    -0.72400
O663        O  0.47848003  0.55081703  0.34093190    -0.72300
O664        O  0.02907128  0.96812085  0.32483093    -0.72500
V665        V  0.01114419  0.00543828  0.39840223     1.35200
V666        V  0.50404736  0.50998580  0.33270913     1.35200
C667        C  0.04114375  0.95332984  0.35792713     0.76900
C668        C  0.47301267  0.56010059  0.37889591     0.77000
C669        C  0.45494307  0.97057605  0.36542609     0.76900
C670        C  0.05907288  0.54574740  0.36138721     0.76800
O671        O  0.01803082  0.95505909  0.07434926    -0.72300
O672        O  0.47518122  0.53764801  0.08494699    -0.72500
O673        O  0.03865290  0.52145080  0.07708104    -0.72400
O674        O  0.45413497  0.97179805  0.08754796    -0.72400
O675        O  0.46760130  0.96454346  0.15433931    -0.72300
O676        O  0.04091360  0.52405317  0.14613185    -0.72400
O677        O  0.47537649  0.53222610  0.15328709    -0.72300
O678        O  0.03234105  0.95537645  0.14146662    -0.72500
V679        V  0.99663587  0.99624336  0.08201895     1.35200
V680        V  0.50410730  0.49411616  0.14761903     1.35200
C681        C  0.03361289  0.94161778  0.10485489     0.76900
C682        C  0.46562906  0.54796387  0.11997956     0.77000
C683        C  0.05299562  0.53247974  0.11139309     0.76900
C684        C  0.44697037  0.96005576  0.12406018     0.76800
O685        O  0.12865157  0.71987513  0.03892061    -0.72300
O686        O  0.16073101  0.66406020  0.45110771    -0.72500
O687        O  0.16086955  0.66102795  0.03589297    -0.72400
O688        O  0.12822479  0.72374123  0.45291368    -0.72400
O689        O  0.17658526  0.75046035  0.45430861    -0.72300
O690        O  0.20871046  0.68831508  0.04240565    -0.72400
O691        O  0.20982062  0.68908507  0.45470299    -0.72300
O692        O  0.17590790  0.74878677  0.04100253    -0.72500
V693        V  0.14581839  0.69265187  0.49467601     1.35200
V694        V  0.19201305  0.71871950  0.49793664     1.35200
C695        C  0.14665190  0.74397468  0.05498659     0.76900
C696        C  0.19015886  0.66655055  0.43747965     0.77000
C697        C  0.18911853  0.66451203  0.05509588     0.76900
C698        C  0.14656216  0.74805388  0.43931319     0.76800
C699        C  0.32486581  0.89971568  0.35759794     0.86000
C700        C  0.32825182  0.86939900  0.38647068    -0.54300
C701        C  0.30003612  0.85670994  0.40349392     0.08900
C702        C  0.26793677  0.87366099  0.38376191     0.19900
C703        C  0.30226329  0.88486416  0.32089848    -0.55000
C704        C  0.27265649  0.87003501  0.33439289     0.09000
C705        C  0.30213153  0.92567103  0.37738519    -0.54500
C706        C  0.27277376  0.91371266  0.39257510     0.09600
H707        H  0.35298674  0.85945570  0.39438624     0.14100
H708        H  0.24407822  0.86193870  0.39404564    -0.00200
H709        H  0.30757850  0.88661526  0.28756618     0.14400
H710        H  0.31080026  0.95221831  0.38207918     0.14200
C711        C  0.32433795  0.89578999  0.14705341     0.86000
C712        C  0.30033576  0.87921803  0.17803994    -0.54300
C713        C  0.27112315  0.86631157  0.15973633     0.08900
C714        C  0.26835852  0.87196406  0.11021541     0.19900
C715        C  0.32894149  0.86856697  0.11327759    -0.55000
C716        C  0.30078736  0.85542273  0.09311279     0.09000
C717        C  0.30413583  0.92283890  0.12252147    -0.54500
C718        C  0.27446846  0.91210861  0.10371268     0.09600
H719        H  0.30596438  0.87786165  0.21191891     0.14100
H720        H  0.24474019  0.86090034  0.09649798    -0.00200
H721        H  0.35367446  0.86162401  0.10367710     0.14400
H722        H  0.31430326  0.94847493  0.11661551     0.14200
C723        C  0.17471293  0.59951941  0.14463792     0.86000
C724        C  0.19619726  0.61942599  0.17820632    -0.54300
C725        C  0.22471811  0.63503813  0.16295066     0.08900
C726        C  0.22906162  0.62843560  0.11392062     0.19900
C727        C  0.16829516  0.62579012  0.10953933    -0.55000
C728        C  0.19568827  0.64146730  0.09280513     0.10000
C729        C  0.19875377  0.57446323  0.12445762    -0.54500
C730        C  0.22703306  0.58793167  0.10857160     0.09600
H731        H  0.18978293  0.62026731  0.21130394     0.14100
H732        H  0.25204416  0.64042962  0.10092633    -0.00200
H733        H  0.14317699  0.63067415  0.09719839     0.14400
H734        H  0.19174845  0.54826633  0.11572092     0.14200
C735        C  0.18037974  0.60297249  0.34429122     0.86000
C736        C  0.17192041  0.62891616  0.37866580    -0.54300
C737        C  0.19841580  0.64361280  0.40088140     0.08900
C738        C  0.23269363  0.62976529  0.38605231     0.19900
C739        C  0.20427722  0.62182136  0.31601620    -0.55000
C740        C  0.23150899  0.63625926  0.33671344     0.09000
C741        C  0.20152424  0.57676694  0.36880560    -0.54500
C742        C  0.22900686  0.58940843  0.39010559     0.09600
H743        H  0.14620822  0.63433421  0.38606795     0.14100
H744        H  0.25500286  0.64104015  0.40341559    -0.00200
H745        H  0.20029498  0.62318615  0.28188805     0.14400
H746        H  0.19319913  0.55056157  0.37482268     0.14200
N747        N  0.25496569  0.94863771  0.49748402    -0.37100
N748        N  0.24970675  0.50251020  0.43388984    -0.57700
N749        N  0.25284606  0.55983466  0.50005377    -0.37100
N750        N  0.25126636  0.50208274  0.06314371    -0.57700
C751        C  0.24734136  0.92932872  0.46228954     0.26500
C752        C  0.24873272  0.92879492  0.03183531     0.26500
C753        C  0.23607095  0.57136026  0.46504713     0.26500
C754        C  0.23562044  0.57098133  0.03360548     0.26500
C755        C  0.25354335  0.97489430  0.40767311     0.35100
C756        C  0.25276640  0.53147934  0.40970291     0.35100
C757        C  0.25617348  0.97390888  0.08830391     0.35100
C758        C  0.25272629  0.53054586  0.08903913     0.35100
C759        C  0.23530605  0.89730685  0.47441699    -0.22400
C760        C  0.23607937  0.89698222  0.01806741    -0.22400
C761        C  0.20733426  0.58764312  0.47645243    -0.22400
C762        C  0.20692268  0.58711636  0.01950063    -0.22400
C763        C  0.25770084  0.98668387  0.36650346    -0.23500
C764        C  0.25785681  0.52212962  0.36795593    -0.23500
C765        C  0.25964560  0.98480507  0.13031904    -0.23500
C766        C  0.25782137  0.52023679  0.13073666    -0.23500
C767        C  0.25420854  0.93909414  0.42016982    -0.18800
C768        C  0.25685295  0.93823396  0.07460961    -0.18800
C769        C  0.24346509  0.56472279  0.07659382    -0.18800
C770        C  0.24435194  0.56549587  0.42277722    -0.18800
H771        H  0.22552883  0.87659238  0.45447300     0.14100
H772        H  0.22654328  0.87600338  0.03661079     0.14100
H773        H  0.18667104  0.59529940  0.45606492     0.14100
H774        H  0.18562755  0.59373763  0.03759242     0.14100
H775        H  0.26017907  0.97126825  0.33810386     0.12400
H776        H  0.25976175  0.53912462  0.34090573     0.12400
H777        H  0.26205495  0.96870331  0.15816209     0.12400
H778        H  0.25849326  0.53646823  0.15880463     0.12400
H779        H  0.26803920  0.97223817  0.49811692     0.25600
H780        H  0.27507105  0.54638842  0.50098728     0.25600
O781        O  0.37031059  0.77722793  0.04133774    -0.72300
O782        O  0.33530525  0.83713137  0.45852339    -0.72500
O783        O  0.33624648  0.83537319  0.04115325    -0.72400
O784        O  0.37035728  0.77949977  0.45594203    -0.72400
O785        O  0.32413223  0.74886844  0.45393311    -0.72300
O786        O  0.28794530  0.80889511  0.03982753    -0.72400
O787        O  0.28814202  0.80859373  0.45225105    -0.72300
O788        O  0.32275063  0.74881186  0.04023496    -0.72500
V789        V  0.35183158  0.80670467  0.49912696     1.35200
V790        V  0.30641583  0.77917112  0.49654165     1.35200
C791        C  0.35249016  0.75278932  0.05528513     0.76900
C792        C  0.30677195  0.83331348  0.44024215     0.77000
C793        C  0.30731868  0.83236489  0.05584845     0.76900
C794        C  0.35377090  0.75408823  0.44083589     0.76800
O795        O  0.22670160  0.87334457  0.28459799    -0.72300
O796        O  0.16181510  0.83564661  0.20704717    -0.72500
O797        O  0.16784814  0.84010512  0.29037137    -0.72400
O798        O  0.22094134  0.86865909  0.19901430    -0.72400
O799        O  0.24903474  0.82173196  0.20575913    -0.72300
O800        O  0.18669859  0.78836554  0.28953616    -0.72400
O801        O  0.18792449  0.78764878  0.20187658    -0.72300
O802        O  0.24780883  0.82266321  0.29255876    -0.72500
V803        V  0.19474508  0.85323927  0.24528136     1.35200
V804        V  0.21760106  0.80575249  0.24737613     1.35200
C805        C  0.24769160  0.85439009  0.30321123     0.76900
C806        C  0.16430633  0.80672413  0.18899990     0.77000
C807        C  0.16696256  0.80983560  0.30526319     0.76900
C808        C  0.24520374  0.85084741  0.18782321     0.76800
C809        C  0.10195611  0.82690757  0.38953722     0.86000
C810        C  0.11847883  0.80432565  0.42412194    -0.54300
C811        C  0.13195579  0.77427144  0.40915871     0.08900
C812        C  0.12694059  0.76957951  0.35965622     0.19900
C813        C  0.12910104  0.83187397  0.35696043    -0.55000
C814        C  0.14303623  0.80324421  0.34086245     0.09000
C815        C  0.07672478  0.80314969  0.36623044    -0.54500
C816        C  0.08800872  0.77310104  0.35156413     0.09600
H817        H  0.11898812  0.81127399  0.45748925     0.14100
H818        H  0.13701315  0.74540334  0.34678710    -0.00200
H819        H  0.13536745  0.85705829  0.34458201     0.14400
H820        H  0.05232922  0.81160088  0.35504480     0.14200
C821        C  0.10591670  0.82459192  0.09399142     0.86000
C822        C  0.13148953  0.82940706  0.13054042    -0.54300
C823        C  0.14156222  0.80041473  0.15071269     0.08900
C824        C  0.12360279  0.76732367  0.13152878     0.19900
C825        C  0.12182959  0.79964446  0.06425138    -0.55000
C826        C  0.13144488  0.76972148  0.08280251     0.09000
C827        C  0.07696212  0.80472064  0.11450605    -0.54500
C828        C  0.08477945  0.77467037  0.13382224     0.09600
H829        H  0.14023383  0.85450278  0.14166853     0.14100
H830        H  0.13120716  0.74300258  0.14712548    -0.00200
H831        H  0.12542671  0.80528299  0.03096722     0.14400
H832        H  0.05245505  0.81582282  0.11781742     0.14200
C833        C  0.39590380  0.67668925  0.10990403     0.86000
C834        C  0.36716460  0.67317289  0.13904259    -0.54300
C835        C  0.35521902  0.70230695  0.15566953     0.08900
C836        C  0.37169382  0.73521575  0.13534405     0.19900
C837        C  0.38055138  0.69777803  0.07302100    -0.55000
C838        C  0.36712349  0.72832197  0.08630073     0.09000
C839        C  0.42183461  0.70194166  0.12864147    -0.54500
C840        C  0.41072440  0.73207685  0.14366220     0.09600
H841        H  0.35739144  0.64753738  0.14671183     0.14100
H842        H  0.36099455  0.76001751  0.14481687    -0.00200
H843        H  0.38135138  0.69125439  0.03973643     0.14400
H844        H  0.44784371  0.69455092  0.13277203     0.14200
C845        C  0.39816905  0.67536476  0.39855826     0.86000
C846        C  0.38234698  0.69922332  0.43020974    -0.54300
C847        C  0.37078184  0.72902245  0.41307225     0.08900
C848        C  0.37740647  0.73292261  0.36440333     0.19900
C849        C  0.37197077  0.67060165  0.36287522    -0.55000
C850        C  0.36033109  0.69986106  0.34447054     0.09000
C851        C  0.42551428  0.69668068  0.37672881    -0.54500
C852        C  0.41627381  0.72696637  0.35820503     0.09600
H853        H  0.37979812  0.69270539  0.46344502     0.14100
H854        H  0.36768477  0.75773712  0.35310733    -0.00200
H855        H  0.36447353  0.64544187  0.35067793     0.14400
H856        H  0.44976660  0.68574215  0.37132457     0.14200
N857        N  0.05564315  0.74887377  0.24186617    -0.37100
N858        N  0.49892045  0.75748287  0.18019416    -0.57700
N859        N  0.44871456  0.75155062  0.24868790    -0.37100
N860        N  0.50248514  0.74766759  0.31078886    -0.57700
C861        C  0.06768271  0.76665903  0.20832200     0.26500
C862        C  0.06881156  0.76506409  0.27696989     0.26500
C863        C  0.42808998  0.75720212  0.21445663     0.26500
C864        C  0.42980090  0.75143943  0.28408337     0.26500
C865        C  0.02500087  0.75550383  0.15319229     0.35100
C866        C  0.46999994  0.75554373  0.15605076     0.35100
C867        C  0.03175449  0.74532764  0.33396565     0.35100
C868        C  0.47662957  0.74344318  0.33782670     0.35100
C869        C  0.08623665  0.79510075  0.22215595    -0.22400
C870        C  0.08693407  0.79418465  0.26511359    -0.22400
C871        C  0.39609288  0.76182395  0.22832764    -0.22400
C872        C  0.39706907  0.75815299  0.27141861    -0.22400
C873        C  0.01261174  0.75299336  0.11175753    -0.23500
C874        C  0.47815462  0.75336234  0.11345828    -0.23500
C875        C  0.02442667  0.74027936  0.37627115    -0.23500
C876        C  0.49000835  0.73964059  0.37878267    -0.23500
C877        C  0.05966323  0.76059104  0.16534049    -0.18800
C878        C  0.06431387  0.75548889  0.31964037    -0.18800
C879        C  0.44110369  0.74301311  0.32642737    -0.18800
C880        C  0.43614995  0.75261177  0.17118790    -0.18800
H881        H  0.09497813  0.81657703  0.20356990     0.14100
H882        H  0.09664886  0.81498418  0.28480248     0.14100
H883        H  0.37372533  0.76742676  0.21013068     0.14100
H884        H  0.37520528  0.76064278  0.28954905     0.14100
H885        H  0.02694356  0.75175082  0.08322292     0.12400
H886        H  0.46087202  0.75170188  0.08627612     0.12400
H887        H  0.04212422  0.73934487  0.40300350     0.12400
H888        H  0.47643951  0.73767251  0.40787774     0.12400
H889        H  0.04056497  0.72650112  0.24080835     0.25600
H890        H  0.47308728  0.74314492  0.24660749     0.25600
O891        O  0.27844233  0.63282789  0.29364379    -0.72300
O892        O  0.33297259  0.66571204  0.20723143    -0.72500
O893        O  0.33719921  0.66515281  0.28990232    -0.72400
O894        O  0.27386519  0.63228237  0.20773156    -0.72400
O895        O  0.24944058  0.68160060  0.20777881    -0.72300
O896        O  0.31467234  0.71520684  0.29380205    -0.72400
O897        O  0.31085270  0.71601940  0.20621276    -0.72300
O898        O  0.25404177  0.68221004  0.29496689    -0.72500
V899        V  0.30509755  0.65026450  0.24954747     1.35200
V900        V  0.28250622  0.69803189  0.25057936     1.35200
C901        C  0.25704884  0.65192601  0.30957691     0.76900
C902        C  0.33199613  0.69564084  0.19153135     0.77000
C903        C  0.33668704  0.69444427  0.30722092     0.76900
C904        C  0.25072283  0.65085152  0.19328270     0.76800
C905        C  0.04187511  0.88687804  0.06483469    -0.02400
C906        C  0.05383607  0.91187570  0.09531476     0.07300
C907        C  0.08778980  0.91210960  0.10847984    -0.02500
C908        C  0.10880135  0.88924420  0.08904243    -0.02500
C909        C  0.09473276  0.85807017  0.07343193     0.07500
C910        C  0.06212338  0.85898924  0.05539482    -0.02700
Br911      Br  0.04379739  0.81923881  0.02518152    -0.01200
Br912      Br  0.49750101  0.88810945  0.03863730    -0.01300
Br913      Br  0.15546700  0.90076154  0.08169991    -0.01200
Br914      Br  0.10518772  0.93884423  0.15623123    -0.01200
C915        C  0.11154403  0.60051782  0.15557357    -0.02400
C916        C  0.14150369  0.58164695  0.15767597     0.07300
C917        C  0.13770924  0.54596266  0.14967776    -0.02500
C918        C  0.11322226  0.53474042  0.11978464    -0.02500
C919        C  0.08393463  0.55341582  0.11457999     0.07500
C920        C  0.08258295  0.58603398  0.13466581    -0.02700
Br921      Br  0.04131804  0.61078264  0.13224377    -0.01200
Br922      Br  0.11098640  0.64633434  0.17912708    -0.01300
Br923      Br  0.12178716  0.99741258  0.08182027    -0.01200
Br924      Br  0.16578217  0.51309273  0.17863785    -0.01200
C925        C  0.40826481  0.61678639  0.07822621    -0.02400
C926        C  0.41171356  0.64122059  0.11133456     0.07300
C927        C  0.42643232  0.63045767  0.15170852    -0.02500
C928        C  0.44346753  0.59966932  0.15509069    -0.02500
C929        C  0.44363796  0.57763263  0.11993107     0.07500
C930        C  0.42347998  0.58473538  0.08303053    -0.02700
Br931      Br  0.41338594  0.54937201  0.04035967    -0.01200
Br932      Br  0.37938287  0.62381033  0.02888476    -0.01300
Br933      Br  0.46642329  0.58848869  0.20858063    -0.01200
Br934      Br  0.42280433  0.65605922  0.20516383    -0.01200
C935        C  0.38745664  0.89092250  0.16133837    -0.02400
C936        C  0.35799863  0.90988679  0.16618363     0.07300
C937        C  0.36235076  0.94577632  0.17019461    -0.02500
C938        C  0.38923248  0.96228348  0.15031171    -0.02500
C939        C  0.41538436  0.94251671  0.13444898     0.07500
C940        C  0.41583396  0.90708089  0.14422341    -0.02700
Br941      Br  0.45529953  0.88081355  0.13509288    -0.01200
Br942      Br  0.38827961  0.84282127  0.17661148    -0.01300
Br943      Br  0.38957496  0.51159457  0.14543906    -0.01200
Br944      Br  0.33084778  0.97141428  0.20209433    -0.01200
C945        C  0.11817888  0.54324866  0.35347942    -0.02400
C946        C  0.09026882  0.56412276  0.35495128     0.07300
C947        C  0.09043994  0.59587402  0.33292924    -0.02500
C948        C  0.12084750  0.60856883  0.31704602    -0.02500
C949        C  0.14937220  0.58783540  0.32100519     0.07500
C950        C  0.14338244  0.55247548  0.32611546    -0.02700
Br951      Br  0.17262519  0.51900468  0.30274872    -0.01200
Br952      Br  0.12513675  0.00825482  0.39556028    -0.01300
Br953      Br  0.12523746  0.65552532  0.29782291    -0.01200
Br954      Br  0.05057522  0.62262790  0.32752950    -0.01200
C955        C  0.03602025  0.89253941  0.37751945    -0.02400
C956        C  0.05599147  0.91890543  0.35974588     0.07300
C957        C  0.09082791  0.91737512  0.36614188    -0.02500
C958        C  0.10475783  0.89242268  0.39335007    -0.02500
C959        C  0.08614345  0.86182798  0.40161127     0.07500
C960        C  0.05070895  0.86481220  0.39928789    -0.02700
Br961      Br  0.02151140  0.83062754  0.42438466    -0.01200
Br962      Br  0.48808610  0.89357796  0.37082765    -0.01300
Br963      Br  0.15050098  0.89771423  0.41453692    -0.01200
Br964      Br  0.11916500  0.94276505  0.32886491    -0.01200
C965        C  0.41336273  0.93127717  0.32623839    -0.02400
C966        C  0.42362812  0.94991491  0.36372590     0.07300
C967        C  0.40326153  0.94968060  0.39902771    -0.02500
C968        C  0.37304175  0.93109811  0.39725596    -0.02500
C969        C  0.36014292  0.91617853  0.35773585     0.07500
C970        C  0.38198866  0.91392634  0.32369386    -0.02700
Br971      Br  0.37294047  0.88218334  0.27740703    -0.01200
Br972      Br  0.44213016  0.92799107  0.27788856    -0.01300
Br973      Br  0.35145377  0.92527907  0.45186488    -0.01200
Br974      Br  0.41456212  0.97730221  0.44943583    -0.01200
C975        C  0.41695975  0.58442345  0.38636119    -0.02400
C976        C  0.45200165  0.58877387  0.39024238     0.07300
C977        C  0.46568927  0.61538591  0.41690611    -0.02500
C978        C  0.44476339  0.64102611  0.43178549    -0.02500
C979        C  0.41121322  0.64143186  0.41686874     0.07500
C980        C  0.39653758  0.60962346  0.40319615    -0.02700
Br981      Br  0.34943444  0.59986929  0.41095899    -0.01200
Br982      Br  0.39697638  0.54363113  0.35994811    -0.01300
Br983      Br  0.46194066  0.67729204  0.46907353    -0.01200
Br984      Br  0.01285902  0.61755628  0.43223289    -0.01200
O985        O  0.03776284  0.96728446  0.89331808    -0.72300
O986        O  0.48510226  0.54315157  0.90907702    -0.72500
O987        O  0.47240039  0.97582894  0.89947135    -0.72400
O988        O  0.04997230  0.53497236  0.89727971    -0.72400
O989        O  0.04252511  0.53707567  0.82852180    -0.72300
O990        O  0.46456870  0.98405855  0.83194273    -0.72400
O991        O  0.47848651  0.55082234  0.84093757    -0.72300
O992        O  0.02907384  0.96812449  0.82483331    -0.72500
V993        V  0.01115279  0.00544340  0.89840593     1.35200
V994        V  0.50405271  0.50999050  0.83271358     1.35200
C995        C  0.04114991  0.95333467  0.85792835     0.76900
C996        C  0.47301878  0.56010500  0.87890184     0.77000
C997        C  0.45495053  0.97057985  0.86543357     0.76900
C998        C  0.05907860  0.54575412  0.86138657     0.76800
O999        O  0.01803177  0.95506239  0.57435197    -0.72300
O1000       O  0.47518501  0.53765186  0.58494627    -0.72500
O1001       O  0.03865634  0.52145332  0.57708675    -0.72400
O1002       O  0.45413670  0.97180258  0.58754495    -0.72400
O1003       O  0.46759984  0.96454724  0.65433709    -0.72300
O1004       O  0.04091487  0.52405369  0.64613771    -0.72400
O1005       O  0.47537734  0.53222891  0.65328620    -0.72300
O1006       O  0.03233943  0.95537761  0.64147009    -0.72500
V1007       V  0.99663819  0.99624715  0.58202176     1.35200
V1008       V  0.50410721  0.49411830  0.64761940     1.35200
C1009       C  0.03361228  0.94161991  0.60485790     0.76900
C1010       C  0.46563141  0.54796706  0.61997831     0.77000
C1011       C  0.05299820  0.53248097  0.61139995     0.76900
C1012       C  0.44697016  0.96006027  0.62405651     0.76800
O1013       O  0.12865517  0.71987571  0.53892504    -0.72300
O1014       O  0.16073188  0.66405703  0.95110868    -0.72500
O1015       O  0.16087305  0.66102847  0.53589129    -0.72400
O1016       O  0.12822587  0.72373863  0.95290943    -0.72400
O1017       O  0.17658413  0.75046233  0.95431490    -0.72300
O1018       O  0.20871131  0.68832019  0.54240791    -0.72400
O1019       O  0.20981920  0.68908709  0.95470080    -0.72300
O1020       O  0.17590866  0.74879235  0.54099675    -0.72500
V1021       V  0.14581715  0.69265008  0.99467459     1.35200
V1022       V  0.19201190  0.71871770  0.99793840     1.35200
C1023       C  0.14665446  0.74397828  0.55498581     0.76900
C1024       C  0.19015888  0.66655081  0.93747848     0.77000
C1025       C  0.18912095  0.66451489  0.55509613     0.76900
C1026       C  0.14656252  0.74805428  0.93931481     0.76800
C1027       C  0.32487162  0.89972073  0.85760006     0.86000
C1028       C  0.32825727  0.86940538  0.88647486    -0.54300
C1029       C  0.30004111  0.85671496  0.90349570     0.08900
C1030       C  0.26794210  0.87366483  0.88376136     0.19900
C1031       C  0.30227070  0.88486702  0.82089978    -0.55000
C1032       C  0.27266341  0.87003770  0.83439310     0.09000
C1033       C  0.30213565  0.92567582  0.87738421    -0.54500
C1034       C  0.27277776  0.91371683  0.89257343     0.09600
H1035       H  0.35299226  0.85946292  0.89439186     0.14100
H1036       H  0.24408342  0.86194208  0.89404380    -0.00200
H1037       H  0.30758721  0.88661741  0.78756777     0.14400
H1038       H  0.31080366  0.95222339  0.88207742     0.14200
C1039       C  0.32434055  0.89579272  0.64705413     0.86000
C1040       C  0.30033865  0.87922128  0.67804131    -0.54300
C1041       C  0.27112638  0.86631380  0.65973803     0.08900
C1042       C  0.26836146  0.87196489  0.61021723     0.19900
C1043       C  0.32894444  0.86856877  0.61327904    -0.55000
C1044       C  0.30079026  0.85542376  0.59311491     0.09000
C1045       C  0.30413792  0.92284064  0.62252141    -0.54500
C1046       C  0.27447065  0.91210917  0.60371348     0.09600
H1047       H  0.30596715  0.87786606  0.71192041     0.14100
H1048       H  0.24474331  0.86090045  0.59650028    -0.00200
H1049       H  0.35367737  0.86162583  0.60367832     0.14400
H1050       H  0.31430441  0.94847699  0.61661507     0.14200
C1051       C  0.17471418  0.59952465  0.64464042     0.86000
C1052       C  0.19619931  0.61943146  0.67820745    -0.54300
C1053       C  0.22472044  0.63504204  0.66295079     0.08900
C1054       C  0.22906351  0.62843785  0.61392111     0.19900
C1055       C  0.16829684  0.62579472  0.60954096    -0.55000
C1056       C  0.19569041  0.64147053  0.59280579     0.10000
C1057       C  0.19875384  0.57446699  0.62446039    -0.54500
C1058       C  0.22703366  0.58793359  0.60857392     0.09600
H1059       H  0.18978502  0.62027425  0.71130490     0.14100
H1060       H  0.25204634  0.64043071  0.60092616    -0.00200
H1061       H  0.14317872  0.63067963  0.59720054     0.14400
H1062       H  0.19174693  0.54827043  0.61572369     0.14200
C1063       C  0.18038282  0.60297700  0.84428527     0.86000
C1064       C  0.17192199  0.62891948  0.87866073    -0.54300
C1065       C  0.19841664  0.64361536  0.90087855     0.08900
C1066       C  0.23269515  0.62976910  0.88605033     0.19900
C1067       C  0.20428091  0.62182720  0.81601262    -0.55000
C1068       C  0.23151195  0.63626463  0.83671169     0.09000
C1069       C  0.20152724  0.57677079  0.86879927    -0.54500
C1070       C  0.22900879  0.58941217  0.89010191     0.09600
H1071       H  0.14620954  0.63433736  0.88606184     0.14100
H1072       H  0.25500370  0.64104378  0.90341523    -0.00200
H1073       H  0.20029989  0.62319284  0.78188446     0.14400
H1074       H  0.19320292  0.55056476  0.87481354     0.14200
N1075       N  0.25496517  0.94864060  0.99748215    -0.37100
N1076       N  0.24970868  0.50251399  0.93388678    -0.57700
N1077       N  0.25284731  0.55983676  0.00005048    -0.37100
N1078       N  0.25126581  0.50208255  0.56314562    -0.57700
C1079       C  0.24734240  0.92933203  0.96228675     0.26500
C1080       C  0.24873268  0.92879332  0.53183774     0.26500
C1081       C  0.23607228  0.57136296  0.96504391     0.26500
C1082       C  0.23562003  0.57098111  0.53360848     0.26500
C1083       C  0.25354625  0.97489813  0.90767031     0.35100
C1084       C  0.25276873  0.53148308  0.90969980     0.35100
C1085       C  0.25617316  0.97390825  0.58830560     0.35100
C1086       C  0.25272444  0.53054540  0.58904182     0.35100
C1087       C  0.23530819  0.89730945  0.97441317    -0.22400
C1088       C  0.23607770  0.89698074  0.51807128    -0.22400
C1089       C  0.20733485  0.58764424  0.97644933    -0.22400
C1090       C  0.20692271  0.58711684  0.51950365    -0.22400
C1091       C  0.25770500  0.98668772  0.86650078    -0.23500
C1092       C  0.25786071  0.52213345  0.86795323    -0.23500
C1093       C  0.25964449  0.98480398  0.63032099    -0.23500
C1094       C  0.25781887  0.52023587  0.63073920    -0.23500
C1095       C  0.25421137  0.93909799  0.92016740    -0.18800
C1096       C  0.25685349  0.93823338  0.57461129    -0.18800
C1097       C  0.24346445  0.56472287  0.57659665    -0.18800
C1098       C  0.24435350  0.56549933  0.92277384    -0.18800
H1099       H  0.22553215  0.87659489  0.95446862     0.14100
H1100       H  0.22654038  0.87600310  0.53661574     0.14100
H1101       H  0.18667170  0.59530036  0.95606155     0.14100
H1102       H  0.18562804  0.59373938  0.53759557     0.14100
H1103       H  0.26018432  0.97127210  0.83810141     0.12400
H1104       H  0.25976644  0.53912845  0.84090313     0.12400
H1105       H  0.26205429  0.96870190  0.65816372     0.12400
H1106       H  0.25849001  0.53646694  0.65880748     0.12400
H1107       H  0.26803776  0.97224113  0.99811562     0.25600
H1108       H  0.27507270  0.54639125  0.00098385     0.25600
O1109       O  0.37031275  0.77722798  0.54133402    -0.72300
O1110       O  0.33530924  0.83713055  0.95852236    -0.72500
O1111       O  0.33624844  0.83537271  0.54115518    -0.72400
O1112       O  0.37035998  0.77949846  0.95594522    -0.72400
O1113       O  0.32413270  0.74887078  0.95392814    -0.72300
O1114       O  0.28794615  0.80889677  0.53982945    -0.72400
O1115       O  0.28814387  0.80859687  0.95224956    -0.72300
O1116       O  0.32275162  0.74881407  0.54023908    -0.72500
V1117       V  0.35183221  0.80670412  0.99912789     1.35200
V1118       V  0.30641603  0.77917138  0.99653862     1.35200
C1119       C  0.35249240  0.75279063  0.55528469     0.76900
C1120       C  0.30677563  0.83331550  0.94024140     0.77000
C1121       C  0.30732072  0.83236547  0.55585072     0.76900
C1122       C  0.35377247  0.75408946  0.94083424     0.76800
O1123       O  0.22670529  0.87334669  0.78460250    -0.72300
O1124       O  0.16182034  0.83565085  0.70704736    -0.72500
O1125       O  0.16785087  0.84010722  0.79037253    -0.72400
O1126       O  0.22094677  0.86866336  0.69901905    -0.72400
O1127       O  0.24903677  0.82173349  0.70575797    -0.72300
O1128       O  0.18670461  0.78836894  0.78954072    -0.72400
O1129       O  0.18792657  0.78765089  0.70188046    -0.72300
O1130       O  0.24781589  0.82266633  0.79255730    -0.72500
V1131       V  0.19474937  0.85324229  0.74528409     1.35200
V1132       V  0.21760519  0.80575518  0.74737776     1.35200
C1133       C  0.24769791  0.85439278  0.80321175     0.76900
C1134       C  0.16431009  0.80672746  0.68900157     0.77000
C1135       C  0.16696697  0.80983825  0.80526615     0.76900
C1136       C  0.24520720  0.85085022  0.68782497     0.76800
C1137       C  0.10195906  0.82691003  0.88953878     0.86000
C1138       C  0.11848020  0.80432717  0.92412395    -0.54300
C1139       C  0.13195718  0.77427284  0.90916079     0.08900
C1140       C  0.12694366  0.76958187  0.85965809     0.19900
C1141       C  0.12910551  0.83187650  0.85696388    -0.55000
C1142       C  0.14304055  0.80324669  0.84086566     0.09000
C1143       C  0.07672829  0.80315290  0.86623001    -0.54500
C1144       C  0.08801211  0.77310399  0.85156461     0.09600
H1145       H  0.11898839  0.81127501  0.95749134     0.14100
H1146       H  0.13701619  0.74540569  0.84678895    -0.00200
H1147       H  0.13537330  0.85706098  0.84458693     0.14400
H1148       H  0.05233332  0.81160456  0.85504277     0.14200
C1149       C  0.10591863  0.82459465  0.59399408     0.86000
C1150       C  0.13149214  0.82940983  0.63054238    -0.54300
C1151       C  0.14156580  0.80041763  0.65071406     0.08900
C1152       C  0.12360681  0.76732632  0.63152945     0.19900
C1153       C  0.12183142  0.79964802  0.56425269    -0.55000
C1154       C  0.13144786  0.76972494  0.58280279     0.09000
C1155       C  0.07696501  0.80472246  0.61450915    -0.54500
C1156       C  0.08478335  0.77467192  0.63382385     0.09600
H1157       H  0.14023583  0.85450560  0.64167086     0.14100
H1158       H  0.13121189  0.74300516  0.64712537    -0.00200
H1159       H  0.12542732  0.80528707  0.53096838     0.14400
H1160       H  0.05245775  0.81582400  0.61782163     0.14200
C1161       C  0.39590596  0.67669052  0.60990096     0.86000
C1162       C  0.36716665  0.67317420  0.63903927    -0.54300
C1163       C  0.35522187  0.70230827  0.65566677     0.08900
C1164       C  0.37169714  0.73521698  0.63534193     0.19900
C1165       C  0.38055394  0.69777959  0.57301830    -0.55000
C1166       C  0.36712672  0.72832358  0.58629884     0.09000
C1167       C  0.42183730  0.70194241  0.62863826    -0.54500
C1168       C  0.41072765  0.73207754  0.64365964     0.09600
H1169       H  0.35739286  0.64753879  0.64670800     0.14100
H1170       H  0.36099807  0.76001885  0.64481468    -0.00200
H1171       H  0.38135326  0.69125579  0.53973375     0.14400
H1172       H  0.44784627  0.69455115  0.63276854     0.14200
C1173       C  0.39817230  0.67536784  0.89855656     0.86000
C1174       C  0.38234858  0.69922546  0.93020734    -0.54300
C1175       C  0.37078331  0.72902434  0.91306983     0.08900
C1176       C  0.37740902  0.73292511  0.86440119     0.19900
C1177       C  0.37197561  0.67060393  0.86287186    -0.55000
C1178       C  0.36033535  0.69986319  0.84446733     0.09000
C1179       C  0.42551763  0.69668467  0.87672862    -0.54500
C1180       C  0.41627663  0.72696999  0.85820418     0.09600
H1181       H  0.37979923  0.69270734  0.96344257     0.14100
H1182       H  0.36768702  0.75773944  0.85310491    -0.00200
H1183       H  0.36448016  0.64544393  0.85067353     0.14400
H1184       H  0.44977032  0.68574668  0.87132523     0.14200
N1185       N  0.05564742  0.74887465  0.74186740    -0.37100
N1186       N  0.49892386  0.75748247  0.68019401    -0.57700
N1187       N  0.44871729  0.75155154  0.74868623    -0.37100
N1188       N  0.50248784  0.74767115  0.81078845    -0.57700
C1189       C  0.06768694  0.76665967  0.70832314     0.26500
C1190       C  0.06881615  0.76506506  0.77697080     0.26500
C1191       C  0.42809290  0.75720205  0.71445452     0.26500
C1192       C  0.42980339  0.75144088  0.78408140     0.26500
C1193       C  0.02500572  0.75550246  0.65319286     0.35100
C1194       C  0.47000380  0.75554265  0.65604979     0.35100
C1195       C  0.03175754  0.74533132  0.83396604     0.35100
C1196       C  0.47663189  0.74344763  0.83782590     0.35100
C1197       C  0.08624130  0.79510123  0.72215682    -0.22400
C1198       C  0.08693923  0.79418518  0.76511430    -0.22400
C1199       C  0.39609559  0.76182370  0.72832501    -0.22400
C1200       C  0.39707151  0.75815353  0.77141604    -0.22400
C1201       C  0.01261749  0.75299070  0.61175783    -0.23500
C1202       C  0.47815935  0.75336041  0.61345765    -0.23500
C1203       C  0.02442894  0.74028514  0.87627164    -0.23500
C1204       C  0.49001004  0.73964637  0.87878236    -0.23500
C1205       C  0.05966775  0.76059124  0.66534171    -0.18800
C1206       C  0.06431745  0.75549119  0.81964128    -0.18800
C1207       C  0.44110616  0.74301634  0.82642595    -0.18800
C1208       C  0.43615345  0.75261148  0.67118603    -0.18800
H1209       H  0.09498258  0.81657759  0.70357086     0.14100
H1210       H  0.09665449  0.81498467  0.78480298     0.14100
H1211       H  0.37372812  0.76742641  0.71012794     0.14100
H1212       H  0.37520764  0.76064379  0.78954624     0.14100
H1213       H  0.02694997  0.75174784  0.58322381     0.12400
H1214       H  0.46087736  0.75169951  0.58627491     0.12400
H1215       H  0.04212601  0.73935163  0.90300458     0.12400
H1216       H  0.47644074  0.73767904  0.90787715     0.12400
H1217       H  0.04056881  0.72650212  0.74080989     0.25600
H1218       H  0.47309032  0.74314630  0.74660669     0.25600
O1219       O  0.27844550  0.63283187  0.79364282    -0.72300
O1220       O  0.33297535  0.66571365  0.70722877    -0.72500
O1221       O  0.33720297  0.66515494  0.78989967    -0.72400
O1222       O  0.27386754  0.63228552  0.70773063    -0.72400
O1223       O  0.24944401  0.68160438  0.70777770    -0.72300
O1224       O  0.31467733  0.71520965  0.79379896    -0.72400
O1225       O  0.31085655  0.71602159  0.70621011    -0.72300
O1226       O  0.25404628  0.68221475  0.79496572    -0.72500
V1227       V  0.30510060  0.65026721  0.74954566     1.35200
V1228       V  0.28251040  0.69803523  0.75057734     1.35200
C1229       C  0.25705272  0.65193080  0.80957611     0.76900
C1230       C  0.33199931  0.69564246  0.69152860     0.77000
C1231       C  0.33669145  0.69444655  0.80721790     0.76900
C1232       C  0.25072560  0.65085517  0.69328191     0.76800
C1233       C  0.04187614  0.88688156  0.56483505    -0.02400
C1234       C  0.05383554  0.91187809  0.59531758     0.07300
C1235       C  0.08778866  0.91211151  0.60848529    -0.02500
C1236       C  0.10880095  0.88924700  0.58904781    -0.02500
C1237       C  0.09473315  0.85807296  0.57343639     0.07500
C1238       C  0.06212398  0.85899169  0.55539828    -0.02700
Br1239     Br  0.04379731  0.81924047  0.52518720    -0.01200
Br1240     Br  0.49750418  0.88811526  0.53863089    -0.01300
Br1241     Br  0.15546602  0.90076628  0.58170428    -0.01200
Br1242     Br  0.10518477  0.93884438  0.65623934    -0.01200
C1243       C  0.11154512  0.60052331  0.65557628    -0.02400
C1244       C  0.14150521  0.58165324  0.65768122     0.07300
C1245       C  0.13771134  0.54596808  0.64968884    -0.02500
C1246       C  0.11322480  0.53474277  0.61979693    -0.02500
C1247       C  0.08393697  0.55341733  0.61458884     0.07500
C1248       C  0.08258419  0.58603686  0.63467095    -0.02700
Br1249     Br  0.04131843  0.61078397  0.63224664    -0.01200
Br1250     Br  0.11098605  0.64634125  0.67912521    -0.01300
Br1251     Br  0.12179185  0.99741399  0.58183522    -0.01200
Br1252     Br  0.16578752  0.51310154  0.67864989    -0.01200
C1253       C  0.40826628  0.61678794  0.57822384    -0.02400
C1254       C  0.41171516  0.64122210  0.61133195     0.07300
C1255       C  0.42643377  0.63045966  0.65170616    -0.02500
C1256       C  0.44346946  0.59967189  0.65508851    -0.02500
C1257       C  0.44364026  0.57763532  0.61992891     0.07500
C1258       C  0.42348252  0.58473760  0.58302788    -0.02700
Br1259     Br  0.41339094  0.54937499  0.54035532    -0.01200
Br1260     Br  0.37938186  0.62381086  0.52888432    -0.01300
Br1261     Br  0.46642620  0.58849252  0.70857828    -0.01200
Br1262     Br  0.42280529  0.65606135  0.70516140    -0.01200
C1263       C  0.38745875  0.89092722  0.66133829    -0.02400
C1264       C  0.35800064  0.90989080  0.66618442     0.07300
C1265       C  0.36235205  0.94578060  0.67019321    -0.02500
C1266       C  0.38923202  0.96228773  0.65030659    -0.02500
C1267       C  0.41538384  0.94252108  0.63444340     0.07500
C1268       C  0.41583433  0.90708544  0.64421890    -0.02700
Br1269     Br  0.45529859  0.88081775  0.63508254    -0.01200
Br1270     Br  0.38828330  0.84282665  0.67661434    -0.01300
Br1271     Br  0.38957171  0.51159865  0.64542737    -0.01200
Br1272     Br  0.33085032  0.97141888  0.70209453    -0.01200
C1273       C  0.11818391  0.54325499  0.85347324    -0.02400
C1274       C  0.09027430  0.56412959  0.85494746     0.07300
C1275       C  0.09044477  0.59588042  0.83292414    -0.02500
C1276       C  0.12085168  0.60857399  0.81703716    -0.02500
C1277       C  0.14937626  0.58784048  0.82099615     0.07500
C1278       C  0.14338589  0.55248081  0.82610648    -0.02700
Br1279     Br  0.17262749  0.51900945  0.80273894    -0.01200
Br1280     Br  0.12514432  0.00826198  0.89555360    -0.01300
Br1281     Br  0.12524217  0.65552942  0.79781058    -0.01200
Br1282     Br  0.05058072  0.62263565  0.82752869    -0.01200
C1283       C  0.03602398  0.89254332  0.87751834    -0.02400
C1284       C  0.05599625  0.91890940  0.85974658     0.07300
C1285       C  0.09083245  0.91737795  0.86614432    -0.02500
C1286       C  0.10476088  0.89242505  0.89335300    -0.02500
C1287       C  0.08614591  0.86183044  0.90161234     0.07500
C1288       C  0.05071142  0.86481519  0.89928652    -0.02700
Br1289     Br  0.02151200  0.83063034  0.92437990    -0.01200
Br1290     Br  0.48809107  0.89358149  0.87082451    -0.01300
Br1291     Br  0.15050276  0.89771643  0.91454412    -0.01200
Br1292     Br  0.11917134  0.94276620  0.82886795    -0.01200
C1293       C  0.41337052  0.93128081  0.82624563    -0.02400
C1294       C  0.42363599  0.94991762  0.86373388     0.07300
C1295       C  0.40326888  0.94968317  0.89903518    -0.02500
C1296       C  0.37304641  0.93110482  0.89726052    -0.02500
C1297       C  0.36014884  0.91618435  0.85773999     0.07500
C1298       C  0.38199649  0.91392996  0.82370023    -0.02700
Br1299     Br  0.37295087  0.88218385  0.77741583    -0.01200
Br1300     Br  0.44213780  0.92799623  0.77789535    -0.01300
Br1301     Br  0.35145306  0.92529178  0.95186684    -0.01200
Br1302     Br  0.41457379  0.97729864  0.94944710    -0.01200
C1303       C  0.41696463  0.58442539  0.88636766    -0.02400
C1304       C  0.45200647  0.58877725  0.89024865     0.07300
C1305       C  0.46569304  0.61539082  0.91691078    -0.02500
C1306       C  0.44476617  0.64103116  0.93178749    -0.02500
C1307       C  0.41121660  0.64143578  0.91686850     0.07500
C1308       C  0.39654148  0.60962670  0.90319778    -0.02700
Br1309     Br  0.34943744  0.59987393  0.91095610    -0.01200
Br1310     Br  0.39698269  0.54362946  0.85996177    -0.01300
Br1311     Br  0.46194097  0.67729857  0.96907511    -0.01200
Br1312     Br  0.01286293  0.61756211  0.93224167    -0.01200
O1313       O  0.53775160  0.46727706  0.39332098    -0.72300
O1314       O  0.98509742  0.04314777  0.40907492    -0.72500
O1315       O  0.97239127  0.47582694  0.39946614    -0.72400
O1316       O  0.54996410  0.03496399  0.39727951    -0.72400
O1317       O  0.54252090  0.03706908  0.32852109    -0.72300
O1318       O  0.96456214  0.48405583  0.33193695    -0.72400
O1319       O  0.97847930  0.05081951  0.34093592    -0.72300
O1320       O  0.52907303  0.46811767  0.32483448    -0.72500
V1321       V  0.51114331  0.50543781  0.39840240     1.35200
V1322       V  0.00404593  0.00998849  0.33270952     1.35200
C1323       C  0.54114421  0.45332769  0.35793220     0.76900
C1324       C  0.97301364  0.06010207  0.37890073     0.77000
C1325       C  0.95494223  0.47057818  0.36542776     0.76900
C1326       C  0.55907251  0.04574634  0.36138773     0.76800
O1327       O  0.51803451  0.45506142  0.07435301    -0.72300
O1328       O  0.97517810  0.03764653  0.08494678    -0.72500
O1329       O  0.53865707  0.02145201  0.07708845    -0.72400
O1330       O  0.95413181  0.47179705  0.08755019    -0.72400
O1331       O  0.96760091  0.46454493  0.15434117    -0.72300
O1332       O  0.54091171  0.02405573  0.14613926    -0.72400
O1333       O  0.97537980  0.03222690  0.15328728    -0.72300
O1334       O  0.53234251  0.45537911  0.14147094    -0.72500
V1335       V  0.49663920  0.49624504  0.08202098     1.35200
V1336       V  0.00410811  0.99411528  0.14761662     1.35200
C1337       C  0.53361589  0.44162059  0.10485931     0.76900
C1338       C  0.96562939  0.04796373  0.11998047     0.77000
C1339       C  0.55299699  0.03248141  0.11140209     0.76900
C1340       C  0.94696845  0.46005670  0.12406373     0.76800
O1341       O  0.62865084  0.21987771  0.03892268    -0.72300
O1342       O  0.66073191  0.16405456  0.45111809    -0.72500
O1343       O  0.66086941  0.16102997  0.03590445    -0.72400
O1344       O  0.62822445  0.22373535  0.45291590    -0.72400
O1345       O  0.67658275  0.25045879  0.45431375    -0.72300
O1346       O  0.70871226  0.18831395  0.04241031    -0.72400
O1347       O  0.70981950  0.18908414  0.45470707    -0.72300
O1348       O  0.67590906  0.24878594  0.04100728    -0.72500
V1349       V  0.64581818  0.19264978  0.49468253     1.35200
V1350       V  0.69201252  0.21871818  0.49794129     1.35200
C1351       C  0.64665209  0.24397643  0.05498929     0.76900
C1352       C  0.69015881  0.16654700  0.43748727     0.77000
C1353       C  0.68911967  0.16451278  0.05510437     0.76900
C1354       C  0.64656015  0.24804980  0.43931674     0.76800
C1355       C  0.82486574  0.39971351  0.35760697     0.86000
C1356       C  0.82825269  0.36939704  0.38647994    -0.54300
C1357       C  0.80003707  0.35670736  0.40350295     0.08900
C1358       C  0.76793726  0.37365766  0.38377202     0.19900
C1359       C  0.80226275  0.38486153  0.32090798    -0.55000
C1360       C  0.77265621  0.37003209  0.33440304     0.09000
C1361       C  0.80213114  0.42566817  0.37739525    -0.54500
C1362       C  0.77277379  0.41370897  0.39258589     0.09600
H1363       H  0.85298784  0.35945471  0.39439640     0.14100
H1364       H  0.74407916  0.36193484  0.39405647    -0.00200
H1365       H  0.80757732  0.38661292  0.28757551     0.14400
H1366       H  0.81079927  0.45221563  0.38208919     0.14200
C1367       C  0.82433669  0.39578959  0.14706059     0.86000
C1368       C  0.80033527  0.37921822  0.17804842    -0.54300
C1369       C  0.77112287  0.36631031  0.15974586     0.08900
C1370       C  0.76835747  0.37196086  0.11022474     0.19900
C1371       C  0.82894051  0.36856557  0.11328602    -0.55000
C1372       C  0.80078654  0.35541987  0.09312203     0.09000
C1373       C  0.80413358  0.42283712  0.12252787    -0.54500
C1374       C  0.77446603  0.41210533  0.10372087     0.09600
H1375       H  0.80596405  0.37786363  0.21192748     0.14100
H1376       H  0.74473926  0.36089635  0.09650780    -0.00200
H1377       H  0.85367365  0.36162330  0.10368551     0.14400
H1378       H  0.81429975  0.44847357  0.11662133     0.14200
C1379       C  0.67471299  0.09952233  0.14464890     0.86000
C1380       C  0.69619854  0.11942862  0.17821615    -0.54300
C1381       C  0.72472004  0.13503863  0.16295963     0.08900
C1382       C  0.72906274  0.12843474  0.11392949     0.19900
C1383       C  0.66829621  0.12579262  0.10954963    -0.55000
C1384       C  0.69568976  0.14146823  0.09281424     0.10000
C1385       C  0.69875213  0.07446429  0.12446868    -0.54500
C1386       C  0.72703192  0.08793054  0.10858166     0.09600
H1387       H  0.68978422  0.12027163  0.21131366     0.14100
H1388       H  0.75204576  0.14042717  0.10093452    -0.00200
H1389       H  0.64317816  0.13067752  0.09720912     0.14400
H1390       H  0.69174505  0.04826758  0.11573287     0.14200
C1391       C  0.68038051  0.10296914  0.34429869     0.86000
C1392       C  0.67192064  0.12891317  0.37867270    -0.54300
C1393       C  0.69841584  0.14360927  0.40088922     0.08900
C1394       C  0.73269382  0.12976109  0.38606160     0.19900
C1395       C  0.70427916  0.12181720  0.31602455    -0.55000
C1396       C  0.73151051  0.13625506  0.33672254     0.09000
C1397       C  0.70152359  0.07676333  0.36881445    -0.54500
C1398       C  0.72900595  0.08940418  0.39011535     0.09600
H1399       H  0.64620838  0.13433185  0.38607389     0.14100
H1400       H  0.75500279  0.14103557  0.40342580    -0.00200
H1401       H  0.70029773  0.12318185  0.28189632     0.14400
H1402       H  0.69319724  0.05055855  0.37483257     0.14200
N1403       N  0.75496176  0.44863334  0.49749474    -0.37100
N1404       N  0.74970489  0.00250532  0.43390109    -0.57700
N1405       N  0.75284214  0.05982948  0.50006422    -0.37100
N1406       N  0.75126028  0.00207872  0.06315431    -0.57700
C1407       C  0.74733935  0.42932385  0.46230019     0.26500
C1408       C  0.74872724  0.42879046  0.03184603     0.26500
C1409       C  0.73606783  0.07135563  0.46505739     0.26500
C1410       C  0.73561780  0.07097781  0.03361574     0.26500
C1411       C  0.75354173  0.47488956  0.40768425     0.35100
C1412       C  0.75276379  0.03147434  0.40971376     0.35100
C1413       C  0.75616745  0.47390450  0.08831465     0.35100
C1414       C  0.75272106  0.03054188  0.08904981     0.35100
C1415       C  0.73530318  0.39730214  0.47442740    -0.22400
C1416       C  0.73607363  0.39697776  0.01807823    -0.22400
C1417       C  0.70733212  0.08764046  0.47646237    -0.22400
C1418       C  0.70692113  0.08711460  0.01951040    -0.22400
C1419       C  0.75769857  0.48667895  0.36651449    -0.23500
C1420       C  0.75785421  0.02212441  0.36796688    -0.23500
C1421       C  0.75964008  0.48480046  0.13032984    -0.23500
C1422       C  0.75781603  0.02023262  0.13074729    -0.23500
C1423       C  0.75420772  0.43908953  0.42018086    -0.18800
C1424       C  0.75684754  0.43822969  0.07462000    -0.18800
C1425       C  0.74346203  0.06471953  0.07660419    -0.18800
C1426       C  0.74434935  0.06549102  0.42278773    -0.18800
H1427       H  0.72552702  0.37658734  0.45448311     0.14100
H1428       H  0.72653622  0.37599963  0.03662199     0.14100
H1429       H  0.68666947  0.09529779  0.45607461     0.14100
H1430       H  0.68562667  0.09373819  0.03760214     0.14100
H1431       H  0.76017677  0.47126324  0.33811495     0.12400
H1432       H  0.75975867  0.03911915  0.34091640     0.12400
H1433       H  0.76205012  0.46869849  0.15817265     0.12400
H1434       H  0.75848884  0.03646411  0.15881524     0.12400
H1435       H  0.76803561  0.47223376  0.49812827     0.25600
H1436       H  0.77506670  0.04638188  0.50099803     0.25600
O1437       O  0.87031228  0.27722557  0.04134392    -0.72300
O1438       O  0.83530455  0.33713196  0.45853515    -0.72500
O1439       O  0.83624684  0.33536936  0.04116436    -0.72400
O1440       O  0.87035755  0.27950162  0.45594779    -0.72400
O1441       O  0.82413493  0.24886635  0.45394217    -0.72300
O1442       O  0.78794499  0.30889272  0.03983461    -0.72400
O1443       O  0.78814367  0.30859042  0.45225783    -0.72300
O1444       O  0.82275171  0.24881059  0.04024363    -0.72500
V1445       V  0.85183208  0.30670352  0.49913569     1.35200
V1446       V  0.80641686  0.27916913  0.49654961     1.35200
C1447       C  0.85249147  0.25278786  0.05529272     0.76900
C1448       C  0.80677248  0.33331188  0.44025148     0.77000
C1449       C  0.80731845  0.33236158  0.05585783     0.76900
C1450       C  0.85377266  0.25408870  0.44084281     0.76800
O1451       O  0.72669760  0.37334203  0.28461367    -0.72300
O1452       O  0.66181750  0.33564900  0.20705079    -0.72500
O1453       O  0.66784266  0.34010295  0.29037588    -0.72400
O1454       O  0.72094441  0.36866162  0.19902925    -0.72400
O1455       O  0.74903212  0.32173006  0.20576544    -0.72300
O1456       O  0.68669865  0.28836544  0.28954633    -0.72400
O1457       O  0.68792210  0.28764788  0.20188619    -0.72300
O1458       O  0.74780966  0.32266199  0.29256506    -0.72500
V1459       V  0.69474418  0.35323911  0.24529107     1.35200
V1460       V  0.71759982  0.30575172  0.24738446     1.35200
C1461       C  0.74769037  0.35438778  0.30322203     0.76900
C1462       C  0.66430703  0.30672541  0.18900552     0.77000
C1463       C  0.66695984  0.30983430  0.30527024     0.76900
C1464       C  0.74520378  0.35084752  0.18783379     0.76800
C1465       C  0.60195276  0.32690431  0.38954435     0.86000
C1466       C  0.61847426  0.30432055  0.42412801    -0.54300
C1467       C  0.63195185  0.27426717  0.40916327     0.08900
C1468       C  0.62693734  0.26957732  0.35966030     0.19900
C1469       C  0.62909940  0.33187215  0.35696969    -0.55000
C1470       C  0.64303386  0.30324260  0.34086958     0.09000
C1471       C  0.57672194  0.30314796  0.36623436    -0.54500
C1472       C  0.58800570  0.27309983  0.35156657     0.09600
H1473       H  0.61898320  0.31126765  0.45749562     0.14100
H1474       H  0.63700996  0.24540167  0.34678982    -0.00200
H1475       H  0.63536842  0.35705722  0.34459522     0.14400
H1476       H  0.55232703  0.31160012  0.35504763     0.14200
C1477       C  0.60592198  0.32459722  0.09399471     0.86000
C1478       C  0.63149459  0.32940984  0.13054389    -0.54300
C1479       C  0.64156458  0.30041682  0.15071638     0.08900
C1480       C  0.62360333  0.26732706  0.13153121     0.19900
C1481       C  0.62183365  0.29964884  0.06425436    -0.55000
C1482       C  0.63144620  0.26972458  0.08280497     0.09000
C1483       C  0.57696552  0.30472761  0.11450806    -0.54500
C1484       C  0.58478052  0.27467644  0.13382385     0.09600
H1485       H  0.64024056  0.35450468  0.14167255     0.14100
H1486       H  0.63120575  0.24300528  0.14712777    -0.00200
H1487       H  0.62543214  0.30528778  0.03097067     0.14400
H1488       H  0.55245888  0.31583113  0.11781800     0.14200
C1489       C  0.89590123  0.17668745  0.10991381     0.86000
C1490       C  0.86716128  0.17317288  0.13905126    -0.54300
C1491       C  0.85521749  0.20230795  0.15567802     0.08900
C1492       C  0.87169396  0.23521569  0.13535212     0.19900
C1493       C  0.88055109  0.19777666  0.07303002    -0.55000
C1494       C  0.86712431  0.22832126  0.08630891     0.09000
C1495       C  0.92183292  0.20193845  0.12865240    -0.54500
C1496       C  0.91072409  0.23207491  0.14367096     0.09600
H1497       H  0.85738685  0.14753798  0.14672117     0.14100
H1498       H  0.86099566  0.26001806  0.14482437    -0.00200
H1499       H  0.88135156  0.19125252  0.03974559     0.14400
H1500       H  0.94784158  0.19454648  0.13278403     0.14200
C1501       C  0.89817394  0.17536740  0.39856589     0.86000
C1502       C  0.88235116  0.19922559  0.43021690    -0.54300
C1503       C  0.87078494  0.22902403  0.41307901     0.08900
C1504       C  0.87740949  0.23292408  0.36440987     0.19900
C1505       C  0.87197606  0.17060310  0.36288282    -0.55000
C1506       C  0.86033487  0.19986183  0.34447804     0.09000
C1507       C  0.92551849  0.19668369  0.37673587    -0.54500
C1508       C  0.91627725  0.22696887  0.35821128     0.09600
H1509       H  0.87980241  0.19270776  0.46345227     0.14100
H1510       H  0.86768667  0.25773793  0.35311353    -0.00200
H1511       H  0.86447998  0.14544282  0.35068618     0.14400
H1512       H  0.94977073  0.18574520  0.37133116     0.14200
N1513       N  0.55564073  0.24887754  0.24186586    -0.37100
N1514       N  0.99892137  0.25748003  0.18019677    -0.57700
N1515       N  0.94871680  0.25155042  0.24869266    -0.37100
N1516       N  0.00248794  0.24766767  0.31079143    -0.57700
C1517       C  0.56768172  0.26666323  0.20832280     0.26500
C1518       C  0.56880967  0.26506576  0.27697085     0.26500
C1519       C  0.92809221  0.25720375  0.21446200     0.26500
C1520       C  0.92980388  0.25144174  0.28408880     0.26500
C1521       C  0.52500070  0.25551029  0.15319049     0.35100
C1522       C  0.97000038  0.25554031  0.15605449     0.35100
C1523       C  0.53175111  0.24532798  0.33396483     0.35100
C1524       C  0.97663305  0.24344427  0.33783048     0.35100
C1525       C  0.58623740  0.29510320  0.22215881    -0.22400
C1526       C  0.58693405  0.29418565  0.26511647    -0.22400
C1527       C  0.89609588  0.26182894  0.22833391    -0.22400
C1528       C  0.89707258  0.25815860  0.27142510    -0.22400
C1529       C  0.51261240  0.25300358  0.11175504    -0.23500
C1530       C  0.97815402  0.25335471  0.11346191    -0.23500
C1531       C  0.52442215  0.24027917  0.37626993    -0.23500
C1532       C  0.99001290  0.23964177  0.37878594    -0.23500
C1533       C  0.55966283  0.26059719  0.16534051    -0.18800
C1534       C  0.56431095  0.25548938  0.31964091    -0.18800
C1535       C  0.94110690  0.24301505  0.32643255    -0.18800
C1536       C  0.93615078  0.25261093  0.17119328    -0.18800
H1537       H  0.59498067  0.31657949  0.20357407     0.14100
H1538       H  0.59664971  0.31498392  0.28480678     0.14100
H1539       H  0.87372860  0.26743339  0.21013715     0.14100
H1540       H  0.87520973  0.26065142  0.28955666     0.14100
H1541       H  0.52694478  0.25176458  0.08322063     0.12400
H1542       H  0.96087084  0.25169265  0.08628045     0.12400
H1543       H  0.54211898  0.23934461  0.40300303     0.12400
H1544       H  0.97644489  0.23767467  0.40788172     0.12400
H1545       H  0.54056129  0.22650558  0.24080655     0.25600
H1546       H  0.97308833  0.24314141  0.24661138     0.25600
O1547       O  0.77843944  0.13282324  0.29364534    -0.72300
O1548       O  0.83297938  0.16571653  0.20724826    -0.72500
O1549       O  0.83719600  0.16514972  0.28991835    -0.72400
O1550       O  0.77387193  0.13228560  0.20773240    -0.72400
O1551       O  0.74943799  0.18159856  0.20779539    -0.72300
O1552       O  0.81467688  0.21520813  0.29380817    -0.72400
O1553       O  0.81084887  0.21601870  0.20621905    -0.72300
O1554       O  0.75404713  0.18220939  0.29498365    -0.72500
V1555       V  0.80509930  0.15026453  0.24955637     1.35200
V1556       V  0.78250703  0.19803137  0.25059080     1.35200
C1557       C  0.75705046  0.15192249  0.30958618     0.76900
C1558       C  0.83199714  0.19564303  0.19154261     0.77000
C1559       C  0.83668833  0.19444362  0.30723121     0.76900
C1560       C  0.75072498  0.15085237  0.19329115     0.76800
C1561       C  0.54188345  0.38688492  0.06483332    -0.02400
C1562       C  0.55384035  0.41187966  0.09531963     0.07300
C1563       C  0.58779248  0.41211276  0.10849174    -0.02500
C1564       C  0.60880672  0.38925022  0.08905428    -0.02500
C1565       C  0.59474052  0.35807713  0.07343710     0.07500
C1566       C  0.56213315  0.35899709  0.05539433    -0.02700
Br1567     Br  0.54381045  0.31924777  0.02517667    -0.01200
Br1568     Br  0.99748885  0.38810097  0.03864820    -0.01300
Br1569     Br  0.65547215  0.40077200  0.08171775    -0.01200
Br1570     Br  0.60518492  0.43884360  0.15624963    -0.01200
C1571       C  0.61154360  0.10052229  0.15558239    -0.02400
C1572       C  0.64150338  0.08165161  0.15768900     0.07300
C1573       C  0.63770892  0.04596653  0.14969628    -0.02500
C1574       C  0.61322347  0.03474196  0.11980243    -0.02500
C1575       C  0.58393611  0.05341716  0.11459264     0.07500
C1576       C  0.58258316  0.08603648  0.13467522    -0.02700
Br1577     Br  0.54131751  0.11078379  0.13224992    -0.01200
Br1578     Br  0.61098491  0.14634118  0.17912889    -0.01300
Br1579     Br  0.62179171  0.49741237  0.08184183    -0.01200
Br1580     Br  0.66578334  0.01309928  0.17865888    -0.01200
C1581       C  0.90826005  0.11678497  0.07823429    -0.02400
C1582       C  0.91170940  0.14121824  0.11134342     0.07300
C1583       C  0.92642875  0.13045433  0.15171633    -0.02500
C1584       C  0.94346690  0.09966755  0.15509550    -0.02500
C1585       C  0.94363795  0.07763236  0.11993423     0.07500
C1586       C  0.92347761  0.08473499  0.08303553    -0.02700
Br1587     Br  0.91338298  0.04937278  0.04036336    -0.01200
Br1588     Br  0.87937224  0.12380787  0.02889792    -0.01300
Br1589     Br  0.96642551  0.08848741  0.20858359    -0.01200
Br1590     Br  0.92279825  0.15605290  0.20517331    -0.01200
C1591       C  0.88745544  0.39092405  0.16134548    -0.02400
C1592       C  0.85799713  0.40988791  0.16618963     0.07300
C1593       C  0.86234861  0.44577761  0.17019956    -0.02500
C1594       C  0.88923064  0.46228491  0.15031728    -0.02500
C1595       C  0.91538275  0.44251808  0.13445513     0.07500
C1596       C  0.91583269  0.40708254  0.14423077    -0.02700
Br1597     Br  0.95529877  0.38081555  0.13510320    -0.01200
Br1598     Br  0.88827910  0.34282317  0.17661985    -0.01300
Br1599     Br  0.88957306  0.01159679  0.14544403    -0.01200
Br1600     Br  0.83084574  0.47141506  0.20209999    -0.01200
C1601       C  0.61817847  0.04324714  0.35348392    -0.02400
C1602       C  0.59026853  0.06412149  0.35495278     0.07300
C1603       C  0.59044078  0.09587210  0.33292934    -0.02500
C1604       C  0.62084952  0.10856665  0.31704931    -0.02500
C1605       C  0.64937368  0.08783255  0.32101089     0.07500
C1606       C  0.64338303  0.05247270  0.32612102    -0.02700
Br1607     Br  0.67262700  0.01900039  0.30275955    -0.01200
Br1608     Br  0.62513641  0.50825633  0.39556863    -0.01300
Br1609     Br  0.62524129  0.15552367  0.29782848    -0.01200
Br1610     Br  0.55057601  0.12262534  0.32752350    -0.01200
C1611       C  0.53601815  0.39253703  0.37752504    -0.02400
C1612       C  0.55599117  0.41890286  0.35975390     0.07300
C1613       C  0.59082721  0.41737184  0.36615434    -0.02500
C1614       C  0.60475453  0.39241873  0.39336365    -0.02500
C1615       C  0.58613940  0.36182391  0.40162060     0.07500
C1616       C  0.55070489  0.36480882  0.39929379    -0.02700
Br1617     Br  0.52150439  0.33062347  0.42438462    -0.01200
Br1618     Br  0.98808741  0.39357890  0.37082493    -0.01300
Br1619     Br  0.65049516  0.39770983  0.41455919    -0.01200
Br1620     Br  0.61916796  0.44276128  0.32888147    -0.01200
C1621       C  0.91336052  0.43127921  0.32624159    -0.02400
C1622       C  0.92362697  0.44991704  0.36372861     0.07300
C1623       C  0.90326140  0.44968233  0.39903144    -0.02500
C1624       C  0.87304225  0.43109841  0.39726184    -0.02500
C1625       C  0.86014264  0.41617749  0.35774293     0.07500
C1626       C  0.88198727  0.41392640  0.32369951    -0.02700
Br1627     Br  0.87293927  0.38218212  0.27741406    -0.01200
Br1628     Br  0.94212505  0.42799645  0.27788856    -0.01300
Br1629     Br  0.85145608  0.42527983  0.45187190    -0.01200
Br1630     Br  0.91456227  0.47730598  0.44943768    -0.01200
C1631       C  0.91696194  0.08442647  0.38636951    -0.02400
C1632       C  0.95200394  0.08877562  0.39024953     0.07300
C1633       C  0.96569321  0.11538713  0.41691281    -0.02500
C1634       C  0.94476885  0.14102879  0.43179184    -0.02500
C1635       C  0.91121815  0.14143495  0.41687733     0.07500
C1636       C  0.89654123  0.10962658  0.40320683    -0.02700
Br1637     Br  0.84943795  0.09987419  0.41097107    -0.01200
Br1638     Br  0.89697640  0.04363663  0.35995296    -0.01300
Br1639     Br  0.96194894  0.17729635  0.46907559    -0.01200
Br1640     Br  0.51285471  0.11755657  0.43222746    -0.01200
O1641       O  0.53776174  0.46728388  0.89332368    -0.72300
O1642       O  0.98510404  0.04315101  0.90908138    -0.72500
O1643       O  0.97240134  0.47582933  0.89947322    -0.72400
O1644       O  0.54997109  0.03497162  0.89727974    -0.72400
O1645       O  0.54252663  0.03707243  0.82852128    -0.72300
O1646       O  0.96456641  0.48406218  0.83194575    -0.72400
O1647       O  0.97848586  0.05082522  0.84094281    -0.72300
O1648       O  0.52907677  0.46812130  0.82483820    -0.72500
V1649       V  0.51115157  0.50544335  0.89840641     1.35200
V1650       V  0.00405072  0.00999345  0.83271389     1.35200
C1651       C  0.54115076  0.45333257  0.85793527     0.76900
C1652       C  0.97301996  0.06010619  0.87890816     0.77000
C1653       C  0.95494975  0.47058174  0.86543641     0.76900
C1654       C  0.55907867  0.04575210  0.86138663     0.76800
O1655       O  0.51803653  0.45506461  0.57435332    -0.72300
O1656       O  0.97518202  0.03765078  0.58494940    -0.72500
O1657       O  0.53866073  0.02145491  0.57709291    -0.72400
O1658       O  0.95413307  0.47180236  0.58754868    -0.72400
O1659       O  0.96759926  0.46454858  0.65434024    -0.72300
O1660       O  0.54091279  0.02405683  0.64614382    -0.72400
O1661       O  0.97538058  0.03222983  0.65328971    -0.72300
O1662       O  0.53234122  0.45538025  0.64147225    -0.72500
V1663       V  0.49664207  0.49624861  0.58202095     1.35200
V1664       V  0.00410783  0.99411744  0.64761976     1.35200
C1665       C  0.53361596  0.44162258  0.60486027     0.76900
C1666       C  0.96563182  0.04796717  0.61998257     0.77000
C1667       C  0.55299960  0.03248319  0.61140780     0.76900
C1668       C  0.94696782  0.46006180  0.62406143     0.76800
O1669       O  0.62865387  0.21987746  0.53892753    -0.72300
O1670       O  0.66073349  0.16405079  0.95111982    -0.72500
O1671       O  0.66087263  0.16102992  0.53590218    -0.72400
O1672       O  0.62822637  0.22373221  0.95291109    -0.72400
O1673       O  0.67658236  0.25046042  0.95431963    -0.72300
O1674       O  0.70871259  0.18831895  0.54241231    -0.72400
O1675       O  0.70981873  0.18908569  0.95470513    -0.72300
O1676       O  0.67590903  0.24879111  0.54100180    -0.72500
V1677       V  0.64581755  0.19264809  0.99468123     1.35200
V1678       V  0.69201206  0.21871632  0.99794299     1.35200
C1679       C  0.64665396  0.24397927  0.55498891     0.76900
C1680       C  0.69015951  0.16654657  0.93748672     0.77000
C1681       C  0.68912178  0.16451530  0.55510420     0.76900
C1682       C  0.64656130  0.24804962  0.93931775     0.76800
C1683       C  0.82487180  0.39971726  0.85760894     0.86000
C1684       C  0.82825801  0.36940160  0.88648309    -0.54300
C1685       C  0.80004185  0.35671097  0.90350391     0.08900
C1686       C  0.76794255  0.37366065  0.88377116     0.19900
C1687       C  0.80227008  0.38486375  0.82090897    -0.55000
C1688       C  0.77266290  0.37003429  0.83440283     0.09000
C1689       C  0.80213587  0.42567173  0.87739480    -0.54500
C1690       C  0.77277824  0.41371209  0.89258451     0.09600
H1691       H  0.85299310  0.35945960  0.89440059     0.14100
H1692       H  0.74408424  0.36193758  0.89405443    -0.00200
H1693       H  0.80758600  0.38661440  0.78757681     0.14400
H1694       H  0.81080351  0.45221937  0.88208839     0.14200
C1695       C  0.82433867  0.39579318  0.64706124     0.86000
C1696       C  0.80033780  0.37922166  0.67804948    -0.54300
C1697       C  0.77112585  0.36631261  0.65974715     0.08900
C1698       C  0.76836001  0.37196229  0.61022623     0.19900
C1699       C  0.82894306  0.36856883  0.61328672    -0.55000
C1700       C  0.80078922  0.35542200  0.59312350     0.09000
C1701       C  0.80413482  0.42283977  0.62252827    -0.54500
C1702       C  0.77446749  0.41210670  0.60372186     0.09600
H1703       H  0.80596656  0.37786791  0.71192862     0.14100
H1704       H  0.74474205  0.36089690  0.59650980    -0.00200
H1705       H  0.85367623  0.36162721  0.60368562     0.14400
H1706       H  0.81430007  0.44847657  0.61662153     0.14200
C1707       C  0.67471488  0.09952725  0.64465159     0.86000
C1708       C  0.69620105  0.11943426  0.67821731    -0.54300
C1709       C  0.72472270  0.13504298  0.66295969     0.08900
C1710       C  0.72906485  0.12843727  0.61392984     0.19900
C1711       C  0.66829813  0.12579668  0.60955119    -0.55000
C1712       C  0.69569190  0.14147123  0.59281467     0.10000
C1713       C  0.69875319  0.07446797  0.62447210    -0.54500
C1714       C  0.72703316  0.08793272  0.60858413     0.09600
H1715       H  0.68978691  0.12027864  0.71131472     0.14100
H1716       H  0.75204801  0.14042872  0.60093403    -0.00200
H1717       H  0.64318003  0.13068209  0.59721120     0.14400
H1718       H  0.69174505  0.04827134  0.61573703     0.14200
C1719       C  0.68038397  0.10297309  0.84429306     0.86000
C1720       C  0.67192274  0.12891567  0.87866834    -0.54300
C1721       C  0.69841727  0.14361095  0.90088701     0.08900
C1722       C  0.73269587  0.12976405  0.88605993     0.19900
C1723       C  0.70428316  0.12182264  0.81602136    -0.55000
C1724       C  0.73151389  0.13625982  0.83672113     0.09000
C1725       C  0.70152703  0.07676641  0.86880802    -0.54500
C1726       C  0.72900839  0.08940702  0.89011163     0.09600
H1727       H  0.64621025  0.13433409  0.88606876     0.14100
H1728       H  0.75500424  0.14103820  0.90342571    -0.00200
H1729       H  0.70030282  0.12318838  0.78189314     0.14400
H1730       H  0.69320148  0.05056089  0.87482291     0.14200
N1731       N  0.75496209  0.44863516  0.99749304    -0.37100
N1732       N  0.74970721  0.00250813  0.93389795    -0.57700
N1733       N  0.75284377  0.05983107  0.00006112    -0.37100
N1734       N  0.75125902  0.00207878  0.56315628    -0.57700
C1735       C  0.74734089  0.42932617  0.96229765     0.26500
C1736       C  0.74872678  0.42878969  0.53184829     0.26500
C1737       C  0.73606959  0.07135751  0.96505414     0.26500
C1738       C  0.73561706  0.07097776  0.53361873     0.26500
C1739       C  0.75354521  0.47489230  0.90768182     0.35100
C1740       C  0.75276639  0.03147706  0.90971052     0.35100
C1741       C  0.75616668  0.47390475  0.58831615     0.35100
C1742       C  0.75271954  0.03054180  0.58905228     0.35100
C1743       C  0.73530519  0.39730399  0.97442384    -0.22400
C1744       C  0.73607223  0.39697691  0.51808181    -0.22400
C1745       C  0.70733316  0.08764095  0.97645899    -0.22400
C1746       C  0.70692069  0.08711514  0.51951372    -0.22400
C1747       C  0.75770299  0.48668164  0.86651213    -0.23500
C1748       C  0.75785809  0.02212715  0.86796396    -0.23500
C1749       C  0.75963918  0.48480051  0.63033143    -0.23500
C1750       C  0.75781458  0.02023229  0.63074955    -0.23500
C1751       C  0.75421106  0.43909231  0.92017872    -0.18800
C1752       C  0.75684751  0.43822994  0.57462161    -0.18800
C1753       C  0.74346167  0.06471994  0.57660688    -0.18800
C1754       C  0.74435132  0.06549349  0.92278430    -0.18800
H1755       H  0.72552998  0.37658921  0.95447894     0.14100
H1756       H  0.72653402  0.37599968  0.53662645     0.14100
H1757       H  0.68667052  0.09529782  0.95607089     0.14100
H1758       H  0.68562666  0.09373964  0.53760571     0.14100
H1759       H  0.76018206  0.47126587  0.83811281     0.12400
H1760       H  0.75976321  0.03912187  0.84091352     0.12400
H1761       H  0.76204975  0.46869841  0.65817408     0.12400
H1762       H  0.75848755  0.03646357  0.65881768     0.12400
H1763       H  0.76803544  0.47223554  0.99812720     0.25600
H1764       H  0.77506872  0.04638409  0.00099501     0.25600
O1765       O  0.87031440  0.27722512  0.54133983    -0.72300
O1766       O  0.83530836  0.33713066  0.95853369    -0.72500
O1767       O  0.83624913  0.33536873  0.54116676    -0.72400
O1768       O  0.87036084  0.27950039  0.95595134    -0.72400
O1769       O  0.82413604  0.24886867  0.95393666    -0.72300
O1770       O  0.78794565  0.30889526  0.53983626    -0.72400
O1771       O  0.78814540  0.30859292  0.95225641    -0.72300
O1772       O  0.82275216  0.24881327  0.54024830    -0.72500
V1773       V  0.85183274  0.30670302  0.99913656     1.35200
V1774       V  0.80641736  0.27916892  0.99654641     1.35200
C1775       C  0.85249344  0.25278904  0.55529233     0.76900
C1776       C  0.80677598  0.33331313  0.94025041     0.77000
C1777       C  0.80732052  0.33236274  0.55586000     0.76900
C1778       C  0.85377500  0.25409010  0.94084105     0.76800
O1779       O  0.72670064  0.37334341  0.78461825    -0.72300
O1780       O  0.66182281  0.33565279  0.70704997    -0.72500
O1781       O  0.66784484  0.34010399  0.79037591    -0.72400
O1782       O  0.72094981  0.36866569  0.69903396    -0.72400
O1783       O  0.74903390  0.32173120  0.70576335    -0.72300
O1784       O  0.68670487  0.28836809  0.78955041    -0.72400
O1785       O  0.68792398  0.28764932  0.70188949    -0.72300
O1786       O  0.74781684  0.32266463  0.79256269    -0.72500
V1787       V  0.69474820  0.35324149  0.74529327     1.35200
V1788       V  0.71760390  0.30575383  0.74738538     1.35200
C1789       C  0.74769643  0.35438988  0.80322212     0.76900
C1790       C  0.66431075  0.30672822  0.68900638     0.77000
C1791       C  0.66696411  0.30983603  0.80527241     0.76900
C1792       C  0.74520708  0.35085015  0.68783509     0.76800
C1793       C  0.60195668  0.32690648  0.88954626     0.86000
C1794       C  0.61847672  0.30432154  0.92412997    -0.54300
C1795       C  0.63195383  0.27426793  0.90916492     0.08900
C1796       C  0.62694036  0.26957909  0.85966178     0.19900
C1797       C  0.62910447  0.33187409  0.85697296    -0.55000
C1798       C  0.64303831  0.30324433  0.84087228     0.09000
C1799       C  0.57672588  0.30315123  0.86623461    -0.54500
C1800       C  0.58800901  0.27310276  0.85156723     0.09600
H1801       H  0.61898507  0.31126810  0.95749769     0.14100
H1802       H  0.63701253  0.24540333  0.84679102    -0.00200
H1803       H  0.63537486  0.35705925  0.84459977     0.14400
H1804       H  0.55233161  0.31160429  0.85504670     0.14200
C1805       C  0.60592400  0.32459967  0.59399644     0.86000
C1806       C  0.63149769  0.32941228  0.63054456    -0.54300
C1807       C  0.64156811  0.30041934  0.65071697     0.08900
C1808       C  0.62360663  0.26732950  0.63153183     0.19900
C1809       C  0.62183497  0.29965151  0.56425511    -0.55000
C1810       C  0.63144831  0.26972726  0.58280518     0.09000
C1811       C  0.57696829  0.30472993  0.61451080    -0.54500
C1812       C  0.58478389  0.27467856  0.63382551     0.09600
H1813       H  0.64024390  0.35450713  0.64167278     0.14100
H1814       H  0.63120943  0.24300765  0.64712791    -0.00200
H1815       H  0.62543238  0.30529059  0.53097119     0.14400
H1816       H  0.55246162  0.31583321  0.61782168     0.14200
C1817       C  0.89590355  0.17668868  0.60991120     0.86000
C1818       C  0.86716376  0.17317448  0.63904879    -0.54300
C1819       C  0.85522100  0.20230965  0.65567608     0.08900
C1820       C  0.87169776  0.23521712  0.63535009     0.19900
C1821       C  0.88055329  0.19777782  0.57302768    -0.55000
C1822       C  0.86712731  0.22832264  0.58630719     0.09000
C1823       C  0.92183599  0.20193934  0.62864874    -0.54500
C1824       C  0.91072798  0.23207586  0.64366782     0.09600
H1825       H  0.85738853  0.14753977  0.64671830     0.14100
H1826       H  0.86099981  0.26001971  0.64482210    -0.00200
H1827       H  0.88135258  0.19125310  0.53974333     0.14400
H1828       H  0.94784451  0.19454673  0.63277992     0.14200
C1829       C  0.89817855  0.17537079  0.89856477     0.86000
C1830       C  0.88235428  0.19922832  0.93021486    -0.54300
C1831       C  0.87078762  0.22902624  0.91307665     0.08900
C1832       C  0.87741306  0.23292651  0.86440764     0.19900
C1833       C  0.87198206  0.17060532  0.86288029    -0.55000
C1834       C  0.86034011  0.19986369  0.84447535     0.09000
C1835       C  0.92552307  0.19668781  0.87673581    -0.54500
C1836       C  0.91628112  0.22697242  0.85821011     0.09600
H1837       H  0.87980519  0.19271055  0.96345027     0.14100
H1838       H  0.86768980  0.25774002  0.85311073    -0.00200
H1839       H  0.86448767  0.14544468  0.85068309     0.14400
H1840       H  0.94977575  0.18574990  0.87133219     0.14200
N1841       N  0.55564410  0.24887982  0.74186714    -0.37100
N1842       N  0.99892580  0.25747963  0.68019614    -0.57700
N1843       N  0.94872043  0.25155111  0.74869040    -0.37100
N1844       N  0.00249165  0.24767077  0.81079044    -0.57700
C1845       C  0.56768519  0.26666513  0.70832401     0.26500
C1846       C  0.56881358  0.26506787  0.77697184     0.26500
C1847       C  0.92809613  0.25720374  0.71445933     0.26500
C1848       C  0.92980733  0.25144287  0.78408623     0.26500
C1849       C  0.52500487  0.25551012  0.65319113     0.35100
C1850       C  0.97000526  0.25553900  0.65605298     0.35100
C1851       C  0.53175373  0.24533231  0.83396520     0.35100
C1852       C  0.97663632  0.24344871  0.83782915     0.35100
C1853       C  0.58624165  0.29510473  0.72215976    -0.22400
C1854       C  0.58693881  0.29418716  0.76511732    -0.22400
C1855       C  0.89609959  0.26182890  0.72833081    -0.22400
C1856       C  0.89707598  0.25815900  0.77142202    -0.22400
C1857       C  0.51261743  0.25300218  0.61175541    -0.23500
C1858       C  0.97815991  0.25335233  0.61346080    -0.23500
C1859       C  0.52442407  0.24028492  0.87627029    -0.23500
C1860       C  0.99001542  0.23964835  0.87878527    -0.23500
C1861       C  0.55966664  0.26059848  0.66534182    -0.18800
C1862       C  0.56431407  0.25549240  0.81964181    -0.18800
C1863       C  0.94111034  0.24301808  0.82643057    -0.18800
C1864       C  0.93615520  0.25261066  0.67119082    -0.18800
H1865       H  0.59498526  0.31658086  0.70357504     0.14100
H1866       H  0.59665529  0.31498517  0.78480750     0.14100
H1867       H  0.87373243  0.26743355  0.71013405     0.14100
H1868       H  0.87521309  0.26065223  0.78955344     0.14100
H1869       H  0.52695045  0.25176277  0.58322156     0.12400
H1870       H  0.96087738  0.25168967  0.58627872     0.12400
H1871       H  0.54212046  0.23935088  0.90300390     0.12400
H1872       H  0.97644687  0.23768252  0.90788075     0.12400
H1873       H  0.54056401  0.22650793  0.74080806     0.25600
H1874       H  0.97309267  0.24314237  0.74660995     0.25600
O1875       O  0.77844264  0.13282650  0.79364393    -0.72300
O1876       O  0.83298329  0.16571857  0.70724688    -0.72500
O1877       O  0.83719993  0.16515113  0.78991701    -0.72400
O1878       O  0.77387519  0.13228913  0.70773086    -0.72400
O1879       O  0.74944174  0.18160235  0.70779523    -0.72300
O1880       O  0.81468279  0.21521064  0.79380564    -0.72400
O1881       O  0.81085307  0.21602092  0.70621708    -0.72300
O1882       O  0.75405246  0.18221377  0.79498352    -0.72500
V1883       V  0.80510291  0.15026706  0.74955492     1.35200
V1884       V  0.78251182  0.19803454  0.75058960     1.35200
C1885       C  0.75705478  0.15192665  0.80958567     0.76900
C1886       C  0.83200109  0.19564498  0.69154089     0.77000
C1887       C  0.83669338  0.19444539  0.80722905     0.76900
C1888       C  0.75072830  0.15085631  0.69329041     0.76800
C1889       C  0.54188466  0.38688760  0.56483300    -0.02400
C1890       C  0.55384035  0.41188164  0.59532098     0.07300
C1891       C  0.58779201  0.41211444  0.60849510    -0.02500
C1892       C  0.60880686  0.38925260  0.58905767    -0.02500
C1893       C  0.59474136  0.35807947  0.57343988     0.07500
C1894       C  0.56213411  0.35899902  0.55539635    -0.02700
Br1895     Br  0.54381087  0.31924894  0.52518061    -0.01200
Br1896     Br  0.99749423  0.38810835  0.53863725    -0.01300
Br1897     Br  0.65547157  0.40077636  0.58171908    -0.01200
Br1898     Br  0.60518289  0.43884352  0.65625546    -0.01200
C1899       C  0.61154554  0.10052703  0.65558605    -0.02400
C1900       C  0.64150565  0.08165709  0.65769411     0.07300
C1901       C  0.63771160  0.04597134  0.64970585    -0.02500
C1902       C  0.61322621  0.03474428  0.61981330    -0.02500
C1903       C  0.58393873  0.05341897  0.61460089     0.07500
C1904       C  0.58258509  0.08603927  0.63468094    -0.02700
Br1905     Br  0.54131881  0.11078538  0.63225494    -0.01200
Br1906     Br  0.61098596  0.14634655  0.67913025    -0.01300
Br1907     Br  0.62179647  0.49741374  0.58185517    -0.01200
Br1908     Br  0.66578814  0.01310681  0.67866996    -0.01200
C1909       C  0.90826159  0.11678598  0.57823393    -0.02400
C1910       C  0.91171115  0.14121972  0.61134218     0.07300
C1911       C  0.92643047  0.13045696  0.65171563    -0.02500
C1912       C  0.94346924  0.09967090  0.65509565    -0.02500
C1913       C  0.94364027  0.07763516  0.61993508     0.07500
C1914       C  0.92348006  0.08473669  0.58303578    -0.02700
Br1915     Br  0.91338810  0.04937467  0.54036255    -0.01200
Br1916     Br  0.87937169  0.12380727  0.52889901    -0.01300
Br1917     Br  0.96643008  0.08849337  0.70858319    -0.01200
Br1918     Br  0.92279956  0.15605644  0.70517200    -0.01200
C1919       C  0.88745681  0.39092945  0.66134507    -0.02400
C1920       C  0.85799847  0.40989265  0.66619056     0.07300
C1921       C  0.86234927  0.44578260  0.67019897    -0.02500
C1922       C  0.88922995  0.46229004  0.65031403    -0.02500
C1923       C  0.91538169  0.44252335  0.63445060     0.07500
C1924       C  0.91583210  0.40708772  0.64422550    -0.02700
Br1925     Br  0.95529582  0.38081977  0.63508778    -0.01200
Br1926     Br  0.88828194  0.34282887  0.67662093    -0.01300
Br1927     Br  0.88957061  0.01160148  0.64543871    -0.01200
Br1928     Br  0.83084739  0.47142021  0.70210079    -0.01200
C1929       C  0.61818396  0.04325253  0.85347702    -0.02400
C1930       C  0.59027441  0.06412728  0.85494862     0.07300
C1931       C  0.59044583  0.09587759  0.83292428    -0.02500
C1932       C  0.62085393  0.10857139  0.81704115    -0.02500
C1933       C  0.64937808  0.08783728  0.82100212     0.07500
C1934       C  0.64338692  0.05247757  0.82611154    -0.02700
Br1935     Br  0.67262963  0.01900510  0.80274824    -0.01200
Br1936     Br  0.62514403  0.50826293  0.89556332    -0.01300
Br1937     Br  0.62524582  0.15552777  0.79781833    -0.01200
Br1938     Br  0.55058136  0.12263157  0.82752201    -0.01200
C1939       C  0.53602303  0.39254109  0.87752665    -0.02400
C1940       C  0.55599674  0.41890703  0.85975700     0.07300
C1941       C  0.59083262  0.41737492  0.86615811    -0.02500
C1942       C  0.60475909  0.39242095  0.89336684    -0.02500
C1943       C  0.58614338  0.36182626  0.90162254     0.07500
C1944       C  0.55070885  0.36481191  0.89929463    -0.02700
Br1945     Br  0.52150675  0.33062620  0.92438213    -0.01200
Br1946     Br  0.98809201  0.39358333  0.87082246    -0.01300
Br1947     Br  0.65049922  0.39771151  0.91456423    -0.01200
Br1948     Br  0.61917426  0.44276268  0.82888481    -0.01200
C1949       C  0.91336849  0.43128270  0.82624935    -0.02400
C1950       C  0.92363517  0.44991879  0.86373769     0.07300
C1951       C  0.90326951  0.44968230  0.89904048    -0.02500
C1952       C  0.87304766  0.43110238  0.89726747    -0.02500
C1953       C  0.86014909  0.41618166  0.85774757     0.07500
C1954       C  0.88199541  0.41392956  0.82370608    -0.02700
Br1955     Br  0.87294967  0.38218368  0.77742162    -0.01200
Br1956     Br  0.94213253  0.42800292  0.77789541    -0.01300
Br1957     Br  0.85145608  0.42528855  0.95187471    -0.01200
Br1958     Br  0.91457522  0.47729786  0.94945197    -0.01200
C1959       C  0.91696734  0.08442825  0.88637876    -0.02400
C1960       C  0.95200932  0.08877867  0.89025795     0.07300
C1961       C  0.96569795  0.11539175  0.91691922    -0.02500
C1962       C  0.94477298  0.14103416  0.93179485    -0.02500
C1963       C  0.91122285  0.14143936  0.91687820     0.07500
C1964       C  0.89654604  0.10963025  0.90321060    -0.02700
Br1965     Br  0.84944192  0.09987991  0.91097145    -0.01200
Br1966     Br  0.89698278  0.04363409  0.85997165    -0.01300
Br1967     Br  0.96195085  0.17730311  0.96907805    -0.01200
Br1968     Br  0.51285848  0.11756323  0.93223322    -0.01200
O1969       O  0.53775162  0.96727705  0.39332080    -0.72300
O1970       O  0.98509745  0.54314789  0.40907490    -0.72500
O1971       O  0.97239141  0.97582684  0.39946611    -0.72400
O1972       O  0.54996427  0.53496400  0.39727970    -0.72400
O1973       O  0.54252111  0.53706901  0.32852128    -0.72300
O1974       O  0.96456218  0.98405565  0.33193693    -0.72400
O1975       O  0.97847950  0.55081961  0.34093587    -0.72300
O1976       O  0.52907312  0.96811764  0.32483429    -0.72500
V1977       V  0.51114324  0.00543771  0.39840220     1.35200
V1978       V  0.00404599  0.50998849  0.33270960     1.35200
C1979       C  0.54114429  0.95332769  0.35793204     0.76900
C1980       C  0.97301376  0.56010220  0.37890064     0.77000
C1981       C  0.95494233  0.97057802  0.36542778     0.76900
C1982       C  0.55907275  0.54574624  0.36138790     0.76800
O1983       O  0.51803453  0.95506122  0.07435345    -0.72300
O1984       O  0.97517800  0.53764668  0.08494687    -0.72500
O1985       O  0.53865700  0.52145217  0.07708813    -0.72400
O1986       O  0.95413190  0.97179697  0.08755017    -0.72400
O1987       O  0.96760089  0.96454494  0.15434121    -0.72300
O1988       O  0.54091169  0.52405583  0.14613893    -0.72400
O1989       O  0.97537971  0.53222694  0.15328736    -0.72300
O1990       O  0.53234243  0.95537895  0.14147141    -0.72500
V1991       V  0.49663927  0.99624490  0.08202126     1.35200
V1992       V  0.00410806  0.49411537  0.14761655     1.35200
C1993       C  0.53361586  0.94162038  0.10485980     0.76900
C1994       C  0.96562925  0.54796379  0.11998059     0.77000
C1995       C  0.55299699  0.53248148  0.11140176     0.76900
C1996       C  0.94696844  0.96005678  0.12406375     0.76800
O1997       O  0.62865095  0.71987762  0.03892312    -0.72300
O1998       O  0.66073191  0.66405473  0.45111809    -0.72500
O1999       O  0.66086952  0.66102986  0.03590442    -0.72400
O2000       O  0.62822444  0.72373548  0.45291590    -0.72400
O2001       O  0.67658273  0.75045895  0.45431386    -0.72300
O2002       O  0.70871222  0.68831408  0.04241055    -0.72400
O2003       O  0.70981951  0.68908428  0.45470726    -0.72300
O2004       O  0.67590903  0.74878610  0.04100726    -0.72500
V2005       V  0.64581813  0.69264989  0.49468255     1.35200
V2006       V  0.69201244  0.71871834  0.49794143     1.35200
C2007       C  0.64665216  0.74397647  0.05498949     0.76900
C2008       C  0.69015884  0.66654716  0.43748737     0.77000
C2009       C  0.68911972  0.66451277  0.05510446     0.76900
C2010       C  0.64656016  0.74804992  0.43931675     0.76800
C2011       C  0.82486589  0.89971335  0.35760737     0.86000
C2012       C  0.82825270  0.86939682  0.38648024    -0.54300
C2013       C  0.80003701  0.85670718  0.40350312     0.08900
C2014       C  0.76793729  0.87365761  0.38377215     0.19900
C2015       C  0.80226291  0.88486155  0.32090826    -0.55000
C2016       C  0.77265630  0.87003217  0.33440317     0.09000
C2017       C  0.80213134  0.92566802  0.37739571    -0.54500
C2018       C  0.77277390  0.91370888  0.39258616     0.09600
H2019       H  0.85298781  0.85945444  0.39439679     0.14100
H2020       H  0.74407914  0.86193483  0.39405647    -0.00200
H2021       H  0.80757759  0.88661301  0.28757582     0.14400
H2022       H  0.81079955  0.95221545  0.38208974     0.14200
C2023       C  0.82433656  0.89579004  0.14706061     0.86000
C2024       C  0.80033521  0.87921859  0.17804841    -0.54300
C2025       C  0.77112288  0.86631058  0.15974582     0.08900
C2026       C  0.76835745  0.87196107  0.11022470     0.19900
C2027       C  0.82894050  0.86856603  0.11328602    -0.55000
C2028       C  0.80078659  0.85542019  0.09312204     0.09000
C2029       C  0.80413339  0.92283747  0.12252783    -0.54500
C2030       C  0.77446588  0.91210556  0.10372081     0.09600
H2031       H  0.80596399  0.87786403  0.21192747     0.14100
H2032       H  0.74473929  0.86089645  0.09650777    -0.00200
H2033       H  0.85367369  0.86162389  0.10368558     0.14400
H2034       H  0.81429952  0.94847393  0.11662122     0.14200
C2035       C  0.67471299  0.59952227  0.14464902     0.86000
C2036       C  0.69619843  0.61942861  0.17821630    -0.54300
C2037       C  0.72471995  0.63503866  0.16295985     0.08900
C2038       C  0.72906276  0.62843471  0.11392973     0.19900
C2039       C  0.66829626  0.62579254  0.10954968    -0.55000
C2040       C  0.69568981  0.64146818  0.09281435     0.10000
C2041       C  0.69875220  0.57446423  0.12446897    -0.54500
C2042       C  0.72703200  0.58793048  0.10858199     0.09600
H2043       H  0.68978407  0.62027163  0.21131380     0.14100
H2044       H  0.75204580  0.64042715  0.10093483    -0.00200
H2045       H  0.64317823  0.63067743  0.09720910     0.14400
H2046       H  0.69174518  0.54826749  0.11573323     0.14200
C2047       C  0.68038058  0.60296932  0.34429869     0.86000
C2048       C  0.67192070  0.62891333  0.37867274    -0.54300
C2049       C  0.69841589  0.64360942  0.40088931     0.08900
C2050       C  0.73269388  0.62976121  0.38606175     0.19900
C2051       C  0.70427929  0.62181739  0.31602463    -0.55000
C2052       C  0.73151062  0.63625521  0.33672270     0.09000
C2053       C  0.70152363  0.57676348  0.36881445    -0.54500
C2054       C  0.72900597  0.58940430  0.39011543     0.09600
H2055       H  0.64620843  0.63433199  0.38607391     0.14100
H2056       H  0.75500284  0.64103565  0.40342598    -0.00200
H2057       H  0.70029789  0.62318212  0.28189640     0.14400
H2058       H  0.69319727  0.55055869  0.37483247     0.14200
N2059       N  0.75496144  0.94863323  0.49749480    -0.37100
N2060       N  0.74970475  0.50250536  0.43390102    -0.57700
N2061       N  0.75284215  0.55982962  0.50006430    -0.37100
N2062       N  0.75126038  0.50207861  0.06315456    -0.57700
C2063       C  0.74733915  0.92932375  0.46230023     0.26500
C2064       C  0.74872707  0.92879056  0.03184594     0.26500
C2065       C  0.73606784  0.57135572  0.46505746     0.26500
C2066       C  0.73561783  0.57097770  0.03361605     0.26500
C2067       C  0.75354194  0.97488950  0.40768438     0.35100
C2068       C  0.75276366  0.53147439  0.40971373     0.35100
C2069       C  0.75616722  0.97390464  0.08831447     0.35100
C2070       C  0.75272110  0.53054174  0.08905011     0.35100
C2071       C  0.73530303  0.89730200  0.47442738    -0.22400
C2072       C  0.73607346  0.89697785  0.01807822    -0.22400
C2073       C  0.70733214  0.58764059  0.47646241    -0.22400
C2074       C  0.70692116  0.58711448  0.01951072    -0.22400
C2075       C  0.75769890  0.98667887  0.36651463    -0.23500
C2076       C  0.75785399  0.52212448  0.36796681    -0.23500
C2077       C  0.75963980  0.98480063  0.13032964    -0.23500
C2078       C  0.75781618  0.52023246  0.13074756    -0.23500
C2079       C  0.75420776  0.93908945  0.42018098    -0.18800
C2080       C  0.75684734  0.93822983  0.07461989    -0.18800
C2081       C  0.74346208  0.56471942  0.07660451    -0.18800
C2082       C  0.74434932  0.56549108  0.42278778    -0.18800
H2083       H  0.72552700  0.87658717  0.45448307     0.14100
H2084       H  0.72653609  0.87599973  0.03662202     0.14100
H2085       H  0.68666948  0.59529790  0.45607466     0.14100
H2086       H  0.68562668  0.59373804  0.03760244     0.14100
H2087       H  0.76017717  0.97126314  0.33811514     0.12400
H2088       H  0.75975848  0.53911926  0.34091637     0.12400
H2089       H  0.76204973  0.96869869  0.15817249     0.12400
H2090       H  0.75848902  0.53646391  0.15881555     0.12400
H2091       H  0.76803529  0.97223365  0.49812839     0.25600
H2092       H  0.77506675  0.54638200  0.50099810     0.25600
O2093       O  0.87031249  0.77722525  0.04134328    -0.72300
O2094       O  0.83530428  0.83713212  0.45853574    -0.72500
O2095       O  0.83624711  0.83536903  0.04116501    -0.72400
O2096       O  0.87035744  0.77950188  0.45594766    -0.72400
O2097       O  0.82413508  0.74886619  0.45394246    -0.72300
O2098       O  0.78794486  0.80889318  0.03983447    -0.72400
O2099       O  0.78814368  0.80859014  0.45225780    -0.72300
O2100       O  0.82275151  0.74881103  0.04024423    -0.72500
V2101       V  0.85183200  0.80670346  0.49913591     1.35200
V2102       V  0.80641682  0.77916901  0.49654976     1.35200
C2103       C  0.85249149  0.75278793  0.05529271     0.76900
C2104       C  0.80677234  0.83331181  0.44025176     0.77000
C2105       C  0.80731854  0.83236170  0.05585804     0.76900
C2106       C  0.85377271  0.75408878  0.44084287     0.76800
O2107       O  0.72669753  0.87334216  0.28461397    -0.72300
O2108       O  0.66181774  0.83564931  0.20705058    -0.72500
O2109       O  0.66784257  0.84010299  0.29037562    -0.72400
O2110       O  0.72094463  0.86866201  0.19902950    -0.72400
O2111       O  0.74903207  0.82173023  0.20576514    -0.72300
O2112       O  0.68669892  0.78836562  0.28954641    -0.72400
O2113       O  0.68792208  0.78764800  0.20188630    -0.72300
O2114       O  0.74780992  0.82266222  0.29256479    -0.72500
V2115       V  0.69474426  0.85323932  0.24529109     1.35200
V2116       V  0.71759994  0.80575192  0.24738437     1.35200
C2117       C  0.74769046  0.85438793  0.30322207     0.76900
C2118       C  0.66430713  0.80672561  0.18900551     0.77000
C2119       C  0.66695992  0.80983439  0.30527013     0.76900
C2120       C  0.74520383  0.85084780  0.18783374     0.76800
C2121       C  0.60195295  0.82690446  0.38954429     0.86000
C2122       C  0.61847439  0.80432067  0.42412796    -0.54300
C2123       C  0.63195191  0.77426727  0.40916321     0.08900
C2124       C  0.62693742  0.76957742  0.35966021     0.19900
C2125       C  0.62909959  0.83187226  0.35696964    -0.55000
C2126       C  0.64303400  0.80324269  0.34086951     0.09000
C2127       C  0.57672209  0.80314818  0.36623428    -0.54500
C2128       C  0.58800578  0.77310003  0.35156648     0.09600
H2129       H  0.61898332  0.81126776  0.45749558     0.14100
H2130       H  0.63701001  0.74540176  0.34678971    -0.00200
H2131       H  0.63536864  0.85705731  0.34459515     0.14400
H2132       H  0.55232721  0.81160040  0.35504755     0.14200
C2133       C  0.60592218  0.82459740  0.09399466     0.86000
C2134       C  0.63149473  0.82940999  0.13054388    -0.54300
C2135       C  0.64156464  0.80041698  0.15071643     0.08900
C2136       C  0.62360335  0.76732723  0.13153131     0.19900
C2137       C  0.62183388  0.79964896  0.06425441    -0.55000
C2138       C  0.63144629  0.76972468  0.08280509     0.09000
C2139       C  0.57696564  0.80472784  0.11450796    -0.54500
C2140       C  0.58478056  0.77467668  0.13382383     0.09600
H2141       H  0.64024072  0.85450482  0.14167251     0.14100
H2142       H  0.63120572  0.74300545  0.14712791    -0.00200
H2143       H  0.62543249  0.80528788  0.03097074     0.14400
H2144       H  0.55245900  0.81583138  0.11781779     0.14200
C2145       C  0.89590096  0.67668736  0.10991380     0.86000
C2146       C  0.86716090  0.67317291  0.13905112    -0.54300
C2147       C  0.85521725  0.70230803  0.15567794     0.08900
C2148       C  0.87169390  0.73521572  0.13535214     0.19900
C2149       C  0.88055097  0.69777668  0.07303000    -0.55000
C2150       C  0.86712429  0.72832133  0.08630890     0.09000
C2151       C  0.92183271  0.70193822  0.12865252    -0.54500
C2152       C  0.91072400  0.73207474  0.14367102     0.09600
H2153       H  0.85738632  0.64753804  0.14672090     0.14100
H2154       H  0.86099567  0.76001811  0.14482447    -0.00200
H2155       H  0.88135141  0.69125254  0.03974557     0.14400
H2156       H  0.94784133  0.69454611  0.13278422     0.14200
C2157       C  0.89817393  0.67536746  0.39856585     0.86000
C2158       C  0.88235135  0.69922574  0.43021693    -0.54300
C2159       C  0.87078511  0.72902419  0.41307905     0.08900
C2160       C  0.87740958  0.73292419  0.36440985     0.19900
C2161       C  0.87197586  0.67060324  0.36288297    -0.55000
C2162       C  0.86033481  0.69986201  0.34447813     0.09000
C2163       C  0.92551846  0.69668362  0.37673562    -0.54500
C2164       C  0.91627728  0.72696884  0.35821108     0.09600
H2165       H  0.87980267  0.69270794  0.46345232     0.14100
H2166       H  0.86768676  0.75773802  0.35311349    -0.00200
H2167       H  0.86447956  0.64544298  0.35068644     0.14400
H2168       H  0.94977064  0.68574505  0.37133080     0.14200
N2169       N  0.55564066  0.74887801  0.24186579    -0.37100
N2170       N  0.99892135  0.75748021  0.18019657    -0.57700
N2171       N  0.94871681  0.75154968  0.24869239    -0.37100
N2172       N  0.00248798  0.74766763  0.31079108    -0.57700
C2173       C  0.56768165  0.76666370  0.20832276     0.26500
C2174       C  0.56880966  0.76506616  0.27697077     0.26500
C2175       C  0.92809236  0.75720372  0.21446183     0.26500
C2176       C  0.92980400  0.75144170  0.28408859     0.26500
C2177       C  0.52500073  0.75551040  0.15319049     0.35100
C2178       C  0.97000038  0.75554006  0.15605428     0.35100
C2179       C  0.53175113  0.74532822  0.33396469     0.35100
C2180       C  0.97663312  0.74344403  0.33783015     0.35100
C2181       C  0.58623740  0.79510363  0.22215876    -0.22400
C2182       C  0.58693410  0.79418602  0.26511642    -0.22400
C2183       C  0.89609619  0.76182985  0.22833382    -0.22400
C2184       C  0.89707287  0.75815958  0.27142505    -0.22400
C2185       C  0.51261246  0.75300336  0.11175505    -0.23500
C2186       C  0.97815406  0.75335425  0.11346174    -0.23500
C2187       C  0.52442218  0.74027943  0.37626979    -0.23500
C2188       C  0.99001298  0.73964157  0.37878560    -0.23500
C2189       C  0.55966282  0.76059755  0.16534049    -0.18800
C2190       C  0.56431097  0.75548968  0.31964079    -0.18800
C2191       C  0.94110696  0.74301492  0.32643231    -0.18800
C2192       C  0.93615079  0.75261077  0.17119312    -0.18800
H2193       H  0.59498074  0.81657990  0.20357403     0.14100
H2194       H  0.59664987  0.81498424  0.28480675     0.14100
H2195       H  0.87372910  0.76743498  0.21013702     0.14100
H2196       H  0.87521023  0.76065330  0.28955683     0.14100
H2197       H  0.52694485  0.75176435  0.08322066     0.12400
H2198       H  0.96087089  0.75169191  0.08628028     0.12400
H2199       H  0.54211900  0.73934502  0.40300291     0.12400
H2200       H  0.97644498  0.73767445  0.40788138     0.12400
H2201       H  0.54056122  0.72650605  0.24080646     0.25600
H2202       H  0.97308809  0.74313971  0.24661103     0.25600
O2203       O  0.77843979  0.63282360  0.29364592    -0.72300
O2204       O  0.83297899  0.66571659  0.20724801    -0.72500
O2205       O  0.83719626  0.66515013  0.28991807    -0.72400
O2206       O  0.77387166  0.63228560  0.20773299    -0.72400
O2207       O  0.74943803  0.68159873  0.20779534    -0.72300
O2208       O  0.81467670  0.71520828  0.29380845    -0.72400
O2209       O  0.81084889  0.71601895  0.20621930    -0.72300
O2210       O  0.75404698  0.68220951  0.29498361    -0.72500
V2211       V  0.80509929  0.65026474  0.24955653     1.35200
V2212       V  0.78250697  0.69803155  0.25059091     1.35200
C2213       C  0.75705057  0.65192273  0.30958645     0.76900
C2214       C  0.83199692  0.69564316  0.19154257     0.77000
C2215       C  0.83668836  0.69444390  0.30723121     0.76900
C2216       C  0.75072485  0.65085242  0.19329143     0.76800
C2217       C  0.54188359  0.88688479  0.06483368    -0.02400
C2218       C  0.55384039  0.91187948  0.09532012     0.07300
C2219       C  0.58779256  0.91211274  0.10849209    -0.02500
C2220       C  0.60880692  0.88925045  0.08905438    -0.02500
C2221       C  0.59474086  0.85807734  0.07343699     0.07500
C2222       C  0.56213349  0.85899724  0.05539424    -0.02700
Br2223     Br  0.54381103  0.81924797  0.02517627    -0.01200
Br2224     Br  0.99748901  0.88810058  0.03864892    -0.01300
Br2225     Br  0.65547240  0.90077241  0.08171832    -0.01200
Br2226     Br  0.60518489  0.93884346  0.15625015    -0.01200
C2227       C  0.61154359  0.60052222  0.15558226    -0.02400
C2228       C  0.64150335  0.58165153  0.15768897     0.07300
C2229       C  0.63770889  0.54596645  0.14969622    -0.02500
C2230       C  0.61322348  0.53474188  0.11980230    -0.02500
C2231       C  0.58393615  0.55341715  0.11459234     0.07500
C2232       C  0.58258320  0.58603647  0.13467492    -0.02700
Br2233     Br  0.54131753  0.61078377  0.13224958    -0.01200
Br2234     Br  0.61098489  0.64634104  0.17912892    -0.01300
Br2235     Br  0.62179153  0.99741229  0.08184211    -0.01200
Br2236     Br  0.66578315  0.51309924  0.17865913    -0.01200
C2237       C  0.90825986  0.61678490  0.07823426    -0.02400
C2238       C  0.91170900  0.64121809  0.11134349     0.07300
C2239       C  0.92642817  0.63045414  0.15171649    -0.02500
C2240       C  0.94346640  0.59966742  0.15509568    -0.02500
C2241       C  0.94363766  0.57763229  0.11993437     0.07500
C2242       C  0.92347736  0.58473489  0.08303562    -0.02700
Br2243     Br  0.91338272  0.54937259  0.04036359    -0.01200
Br2244     Br  0.87937261  0.62380798  0.02889742    -0.01300
Br2245     Br  0.96642489  0.58848727  0.20858384    -0.01200
Br2246     Br  0.92279750  0.65605268  0.20517347    -0.01200
C2247       C  0.88745525  0.89092452  0.16134583    -0.02400
C2248       C  0.85799695  0.90988844  0.16618973     0.07300
C2249       C  0.86234844  0.94577816  0.17019934    -0.02500
C2250       C  0.88923053  0.96228531  0.15031703    -0.02500
C2251       C  0.91538266  0.94251834  0.13445513     0.07500
C2252       C  0.91583252  0.90708286  0.14423101    -0.02700
Br2253     Br  0.95529857  0.88081576  0.13510357    -0.01200
Br2254     Br  0.88827887  0.84282371  0.17662039    -0.01300
Br2255     Br  0.88957310  0.51159642  0.14544469    -0.01200
Br2256     Br  0.83084546  0.97141590  0.20209927    -0.01200
C2257       C  0.61817874  0.54324714  0.35348377    -0.02400
C2258       C  0.59026877  0.56412142  0.35495289     0.07300
C2259       C  0.59044091  0.59587209  0.33292959    -0.02500
C2260       C  0.62084957  0.60856674  0.31704940    -0.02500
C2261       C  0.64937379  0.58783272  0.32101079     0.07500
C2262       C  0.64338322  0.55247282  0.32612079    -0.02700
Br2263     Br  0.67262729  0.51900062  0.30275928    -0.01200
Br2264     Br  0.62513584  0.00825613  0.39556862    -0.01300
Br2265     Br  0.62524118  0.65552384  0.29782878    -0.01200
Br2266     Br  0.55057613  0.62262537  0.32752433    -0.01200
C2267       C  0.53601833  0.89253714  0.37752535    -0.02400
C2268       C  0.55599127  0.91890287  0.35975385     0.07300
C2269       C  0.59082733  0.91737187  0.36615407    -0.02500
C2270       C  0.60475474  0.89241887  0.39336345    -0.02500
C2271       C  0.58613966  0.86182405  0.40162058     0.07500
C2272       C  0.55070516  0.86480894  0.39929401    -0.02700
Br2273     Br  0.52150478  0.83062349  0.42438484    -0.01200
Br2274     Br  0.98808765  0.89357905  0.37082524    -0.01300
Br2275     Br  0.65049548  0.89771004  0.41455863    -0.01200
Br2276     Br  0.61916800  0.94276128  0.32888105    -0.01200
C2277       C  0.91336066  0.93127883  0.32624186    -0.02400
C2278       C  0.92362713  0.94991681  0.36372876     0.07300
C2279       C  0.90326166  0.94968207  0.39903170    -0.02500
C2280       C  0.87304249  0.93109816  0.39726221    -0.02500
C2281       C  0.86014284  0.91617720  0.35774336     0.07500
C2282       C  0.88198748  0.91392588  0.32370001    -0.02700
Br2283     Br  0.87293967  0.88218087  0.27741527    -0.01200
Br2284     Br  0.94212499  0.92799611  0.27788868    -0.01300
Br2285     Br  0.85145632  0.92527970  0.45187230    -0.01200
Br2286     Br  0.91456264  0.97730569  0.44943794    -0.01200
C2287       C  0.91696207  0.58442661  0.38636922    -0.02400
C2288       C  0.95200407  0.58877577  0.39024929     0.07300
C2289       C  0.96569332  0.61538732  0.41691252    -0.02500
C2290       C  0.94476892  0.64102889  0.43179167    -0.02500
C2291       C  0.91121818  0.64143500  0.41687723     0.07500
C2292       C  0.89654133  0.60962664  0.40320662    -0.02700
Br2293     Br  0.84943811  0.59987401  0.41097105    -0.01200
Br2294     Br  0.89697657  0.54363680  0.35995259    -0.01300
Br2295     Br  0.96194903  0.67729643  0.46907542    -0.01200
Br2296     Br  0.51285476  0.61755703  0.43222750    -0.01200
O2297       O  0.53776182  0.96728365  0.89332295    -0.72300
O2298       O  0.98510397  0.54315132  0.90908181    -0.72500
O2299       O  0.97240150  0.97582905  0.89947266    -0.72400
O2300       O  0.54997114  0.53497187  0.89728048    -0.72400
O2301       O  0.54252675  0.53707272  0.82852201    -0.72300
O2302       O  0.96456625  0.98406209  0.83194526    -0.72400
O2303       O  0.97848588  0.55082535  0.84094319    -0.72300
O2304       O  0.52907660  0.96812097  0.82483750    -0.72500
V2305       V  0.51115158  0.00544304  0.89840578     1.35200
V2306       V  0.00405083  0.50999359  0.83271453     1.35200
C2307       C  0.54115072  0.95333230  0.85793454     0.76900
C2308       C  0.97301990  0.56010641  0.87890848     0.77000
C2309       C  0.95494973  0.97058158  0.86543596     0.76900
C2310       C  0.55907876  0.54575236  0.86138739     0.76800
O2311       O  0.51803651  0.95506455  0.57435451    -0.72300
O2312       O  0.97518202  0.53765091  0.58494891    -0.72500
O2313       O  0.53866084  0.52145496  0.57709211    -0.72400
O2314       O  0.95413307  0.97180224  0.58754951    -0.72400
O2315       O  0.96759921  0.96454863  0.65434111    -0.72300
O2316       O  0.54091288  0.52405664  0.64614304    -0.72400
O2317       O  0.97538068  0.53222975  0.65328920    -0.72300
O2318       O  0.53234114  0.95538034  0.64147346    -0.72500
V2319       V  0.49664202  0.99624854  0.58202187     1.35200
V2320       V  0.00410790  0.49411738  0.64761896     1.35200
C2321       C  0.53361587  0.94162256  0.60486155     0.76900
C2322       C  0.96563178  0.54796712  0.61998215     0.77000
C2323       C  0.55299973  0.53248308  0.61140708     0.76900
C2324       C  0.94696778  0.96006178  0.62406230     0.76800
O2325       O  0.62865372  0.71987752  0.53892756    -0.72300
O2326       O  0.66073337  0.66405101  0.95111980    -0.72500
O2327       O  0.66087259  0.66103000  0.53590218    -0.72400
O2328       O  0.62822623  0.72373240  0.95291149    -0.72400
O2329       O  0.67658233  0.75046037  0.95431957    -0.72300
O2330       O  0.70871249  0.68831912  0.54241245    -0.72400
O2331       O  0.70981872  0.68908565  0.95470539    -0.72300
O2332       O  0.67590885  0.74879123  0.54100194    -0.72500
V2333       V  0.64581753  0.69264814  0.99468142     1.35200
V2334       V  0.69201203  0.71871638  0.99794311     1.35200
C2335       C  0.64665378  0.74397933  0.55498900     0.76900
C2336       C  0.69015945  0.66654664  0.93748687     0.77000
C2337       C  0.68912171  0.66451541  0.55510427     0.76900
C2338       C  0.64656120  0.74804966  0.93931787     0.76800
C2339       C  0.82487173  0.89971715  0.85760916     0.86000
C2340       C  0.82825787  0.86940147  0.88648330    -0.54300
C2341       C  0.80004166  0.85671090  0.90350405     0.08900
C2342       C  0.76794239  0.87366064  0.88377127     0.19900
C2343       C  0.80226998  0.88486372  0.82090915    -0.55000
C2344       C  0.77266275  0.87003432  0.83440295     0.09000
C2345       C  0.80213585  0.92567164  0.87739505    -0.54500
C2346       C  0.77277816  0.91371206  0.89258463     0.09600
H2347       H  0.85299293  0.85945945  0.89440092     0.14100
H2348       H  0.74408406  0.86193763  0.89405451    -0.00200
H2349       H  0.80758592  0.88661439  0.78757701     0.14400
H2350       H  0.81080356  0.95221925  0.88208871     0.14200
C2351       C  0.82433841  0.89579328  0.64706132     0.86000
C2352       C  0.80033753  0.87922178  0.67804955    -0.54300
C2353       C  0.77112563  0.86631265  0.65974719     0.08900
C2354       C  0.76835983  0.87196222  0.61022627     0.19900
C2355       C  0.82894290  0.86856893  0.61328685    -0.55000
C2356       C  0.80078909  0.85542197  0.59312365     0.09000
C2357       C  0.80413456  0.92283978  0.62252823    -0.54500
C2358       C  0.77446723  0.91210662  0.60372184     0.09600
H2359       H  0.80596622  0.87786813  0.71192872     0.14100
H2360       H  0.74474190  0.86089675  0.59650984    -0.00200
H2361       H  0.85367611  0.86162745  0.60368577     0.14400
H2362       H  0.81429981  0.94847656  0.61662141     0.14200
C2363       C  0.67471475  0.59952734  0.64465160     0.86000
C2364       C  0.69620087  0.61943432  0.67821738    -0.54300
C2365       C  0.72472256  0.63504303  0.66295981     0.08900
C2366       C  0.72906475  0.62843737  0.61392995     0.19900
C2367       C  0.66829804  0.62579678  0.60955122    -0.55000
C2368       C  0.69569181  0.64147134  0.59281474     0.10000
C2369       C  0.69875311  0.57446806  0.62447216    -0.54500
C2370       C  0.72703309  0.58793283  0.60858420     0.09600
H2371       H  0.68978667  0.62027874  0.71131477     0.14100
H2372       H  0.75204792  0.64042884  0.60093417    -0.00200
H2373       H  0.64317996  0.63068218  0.59721118     0.14400
H2374       H  0.69174504  0.54827139  0.61573718     0.14200
C2375       C  0.68038401  0.60297303  0.84429337     0.86000
C2376       C  0.67192274  0.62891559  0.87866864    -0.54300
C2377       C  0.69841725  0.64361095  0.90088727     0.08900
C2378       C  0.73269587  0.62976411  0.88606019     0.19900
C2379       C  0.70428313  0.62182265  0.81602163    -0.55000
C2380       C  0.73151383  0.63625991  0.83672139     0.09000
C2381       C  0.70152713  0.57676641  0.86880833    -0.54500
C2382       C  0.72900847  0.58940707  0.89011192     0.09600
H2383       H  0.64621023  0.63433393  0.88606905     0.14100
H2384       H  0.75500423  0.64103834  0.90342592    -0.00200
H2385       H  0.70030274  0.62318834  0.78189341     0.14400
H2386       H  0.69320163  0.55056088  0.87482323     0.14200
N2387       N  0.75496186  0.94863526  0.99749292    -0.37100
N2388       N  0.74970738  0.50250811  0.93389816    -0.57700
N2389       N  0.75284384  0.55983104  0.00006141    -0.37100
N2390       N  0.75125921  0.50207892  0.56315631    -0.57700
C2391       C  0.74734064  0.92932625  0.96229757     0.26500
C2392       C  0.74872645  0.92878954  0.53184832     0.26500
C2393       C  0.73606966  0.57135751  0.96505444     0.26500
C2394       C  0.73561708  0.57097793  0.53361880     0.26500
C2395       C  0.75354517  0.97489230  0.90768170     0.35100
C2396       C  0.75276643  0.53147706  0.90971075     0.35100
C2397       C  0.75616637  0.97390460  0.58831614     0.35100
C2398       C  0.75271960  0.53054194  0.58905233     0.35100
C2399       C  0.73530493  0.89730408  0.97442382    -0.22400
C2400       C  0.73607201  0.89697673  0.51808179    -0.22400
C2401       C  0.70733321  0.58764090  0.97645931    -0.22400
C2402       C  0.70692072  0.58711532  0.51951377    -0.22400
C2403       C  0.75770315  0.98668160  0.86651202    -0.23500
C2404       C  0.75785796  0.52212718  0.86796413    -0.23500
C2405       C  0.75963887  0.98480037  0.63033142    -0.23500
C2406       C  0.75781469  0.52023242  0.63074960    -0.23500
C2407       C  0.75421091  0.93909232  0.92017866    -0.18800
C2408       C  0.75684716  0.93822979  0.57462164    -0.18800
C2409       C  0.74346164  0.56472008  0.57660696    -0.18800
C2410       C  0.74435141  0.56549352  0.92278458    -0.18800
H2411       H  0.72552969  0.87658930  0.95447895     0.14100
H2412       H  0.72653389  0.87599944  0.53662641     0.14100
H2413       H  0.68667058  0.59529780  0.95607120     0.14100
H2414       H  0.68562667  0.59373982  0.53760574     0.14100
H2415       H  0.76018234  0.97126582  0.83811274     0.12400
H2416       H  0.75976295  0.53912191  0.84091369     0.12400
H2417       H  0.76204933  0.96869827  0.65817407     0.12400
H2418       H  0.75848759  0.53646369  0.65881773     0.12400
H2419       H  0.76803521  0.97223565  0.99812704     0.25600
H2420       H  0.77506881  0.54638409  0.00099530     0.25600
O2421       O  0.87031443  0.77722482  0.54133973    -0.72300
O2422       O  0.83530792  0.83713113  0.95853438    -0.72500
O2423       O  0.83624915  0.83536837  0.54116732    -0.72400
O2424       O  0.87036039  0.77950086  0.95595072    -0.72400
O2425       O  0.82413601  0.74886847  0.95393728    -0.72300
O2426       O  0.78794549  0.80889528  0.53983625    -0.72400
O2427       O  0.78814538  0.80859270  0.95225632    -0.72300
O2428       O  0.82275203  0.74881327  0.54024859    -0.72500
V2429       V  0.85183264  0.80670310  0.99913659     1.35200
V2430       V  0.80641726  0.77916903  0.99654665     1.35200
C2431       C  0.85249338  0.75278888  0.55529242     0.76900
C2432       C  0.80677572  0.83331323  0.94025070     0.77000
C2433       C  0.80732045  0.83236258  0.55586026     0.76900
C2434       C  0.85377475  0.75409020  0.94084108     0.76800
O2435       O  0.72670032  0.87334344  0.78461859    -0.72300
O2436       O  0.66182277  0.83565297  0.70704980    -0.72500
O2437       O  0.66784451  0.84010394  0.79037576    -0.72400
O2438       O  0.72094978  0.86866594  0.69903426    -0.72400
O2439       O  0.74903355  0.82173119  0.70576313    -0.72300
O2440       O  0.68670487  0.78836816  0.78955058    -0.72400
O2441       O  0.68792364  0.78764930  0.70188971    -0.72300
O2442       O  0.74781685  0.82266476  0.79256250    -0.72500
V2443       V  0.69474803  0.85324158  0.74529335     1.35200
V2444       V  0.71760374  0.80575391  0.74738538     1.35200
C2445       C  0.74769628  0.85438994  0.80322221     0.76900
C2446       C  0.66431051  0.80672828  0.68900646     0.77000
C2447       C  0.66696392  0.80983600  0.80527238     0.76900
C2448       C  0.74520686  0.85085025  0.68783511     0.76800
C2449       C  0.60195641  0.82690637  0.88954614     0.86000
C2450       C  0.61847655  0.80432153  0.92412990    -0.54300
C2451       C  0.63195370  0.77426793  0.90916494     0.08900
C2452       C  0.62694018  0.76957900  0.85966180     0.19900
C2453       C  0.62910413  0.83187395  0.85697276    -0.55000
C2454       C  0.64303807  0.80324423  0.84087219     0.09000
C2455       C  0.57672563  0.80315103  0.86623461    -0.54500
C2456       C  0.58800879  0.77310256  0.85156729     0.09600
H2457       H  0.61898491  0.81126815  0.95749761     0.14100
H2458       H  0.63701237  0.74540323  0.84679108    -0.00200
H2459       H  0.63537441  0.85705909  0.84459943     0.14400
H2460       H  0.55233135  0.81160405  0.85504664     0.14200
C2461       C  0.60592360  0.82459961  0.59399663     0.86000
C2462       C  0.63149723  0.82941223  0.63054478    -0.54300
C2463       C  0.64156776  0.80041932  0.65071714     0.08900
C2464       C  0.62360637  0.76732945  0.63153194     0.19900
C2465       C  0.62183464  0.79965152  0.56425527    -0.55000
C2466       C  0.63144806  0.76972728  0.58280529     0.09000
C2467       C  0.57696791  0.80472976  0.61451092    -0.54500
C2468       C  0.58478360  0.77467839  0.63382559     0.09600
H2469       H  0.64024332  0.85450709  0.64167307     0.14100
H2470       H  0.63120923  0.74300760  0.64712798    -0.00200
H2471       H  0.62543203  0.80529063  0.53097135     0.14400
H2472       H  0.55246121  0.81583294  0.61782183     0.14200
C2473       C  0.89590296  0.67668822  0.60991123     0.86000
C2474       C  0.86716309  0.67317421  0.63904870    -0.54300
C2475       C  0.85522055  0.70230947  0.65567604     0.08900
C2476       C  0.87169756  0.73521684  0.63535018     0.19900
C2477       C  0.88055293  0.69777751  0.57302771    -0.55000
C2478       C  0.86712718  0.72832244  0.58630724     0.09000
C2479       C  0.92183555  0.70193868  0.62864890    -0.54500
C2480       C  0.91072771  0.73207526  0.64366801     0.09600
H2481       H  0.85738768  0.64753955  0.64671816     0.14100
H2482       H  0.86099975  0.76001947  0.64482231    -0.00200
H2483       H  0.88135215  0.69125279  0.53974335     0.14400
H2484       H  0.94784403  0.69454593  0.63278005     0.14200
C2485       C  0.89817814  0.67537071  0.89856501     0.86000
C2486       C  0.88235398  0.69922835  0.93021507    -0.54300
C2487       C  0.87078741  0.72902629  0.91307678     0.08900
C2488       C  0.87741286  0.73292646  0.86440774     0.19900
C2489       C  0.87198158  0.67060529  0.86288061    -0.55000
C2490       C  0.86033979  0.69986371  0.84447556     0.09000
C2491       C  0.92552270  0.69668758  0.87673594    -0.54500
C2492       C  0.91628087  0.72697221  0.85821018     0.09600
H2493       H  0.87980485  0.69271063  0.96345048     0.14100
H2494       H  0.86768961  0.75773994  0.85311075    -0.00200
H2495       H  0.86448701  0.64544467  0.85068353     0.14400
H2496       H  0.94977532  0.68574956  0.87133229     0.14200
N2497       N  0.55564387  0.74887966  0.74186723    -0.37100
N2498       N  0.99892560  0.75747923  0.68019614    -0.57700
N2499       N  0.94872021  0.75154963  0.74869032    -0.37100
N2500       N  0.00249143  0.74767045  0.81079028    -0.57700
C2501       C  0.56768497  0.76666494  0.70832410     0.26500
C2502       C  0.56881335  0.76506769  0.77697190     0.26500
C2503       C  0.92809610  0.75720316  0.71445934     0.26500
C2504       C  0.92980722  0.75144241  0.78408622     0.26500
C2505       C  0.52500467  0.75550966  0.65319128     0.35100
C2506       C  0.97000508  0.75553820  0.65605297     0.35100
C2507       C  0.53175347  0.74533216  0.83396524     0.35100
C2508       C  0.97663614  0.74344818  0.83782902     0.35100
C2509       C  0.58624144  0.79510453  0.72215983    -0.22400
C2510       C  0.58693858  0.79418698  0.76511738    -0.22400
C2511       C  0.89609978  0.76182958  0.72833086    -0.22400
C2512       C  0.89707612  0.75815987  0.77142214    -0.22400
C2513       C  0.51261724  0.75300155  0.61175558    -0.23500
C2514       C  0.97815973  0.75335135  0.61346080    -0.23500
C2515       C  0.52442384  0.74028473  0.87627032    -0.23500
C2516       C  0.99001528  0.73964782  0.87878511    -0.23500
C2517       C  0.55966642  0.76059825  0.66534192    -0.18800
C2518       C  0.56431383  0.75549223  0.81964186    -0.18800
C2519       C  0.94111015  0.74301766  0.82643056    -0.18800
C2520       C  0.93615504  0.75261000  0.67119085    -0.18800
H2521       H  0.59498501  0.81658066  0.70357511     0.14100
H2522       H  0.59665500  0.81498503  0.78480753     0.14100
H2523       H  0.87373287  0.76743516  0.71013404     0.14100
H2524       H  0.87521349  0.76065444  0.78955379     0.14100
H2525       H  0.52695025  0.75176225  0.58322172     0.12400
H2526       H  0.96087722  0.75168844  0.58627872     0.12400
H2527       H  0.54212024  0.73935071  0.90300392     0.12400
H2528       H  0.97644675  0.73768196  0.90788061     0.12400
H2529       H  0.54056373  0.72650774  0.74080815     0.25600
H2530       H  0.97309201  0.74313966  0.74660979     0.25600
O2531       O  0.77844244  0.63282658  0.79364408    -0.72300
O2532       O  0.83298313  0.66571864  0.70724717    -0.72500
O2533       O  0.83719967  0.66515121  0.78991721    -0.72400
O2534       O  0.77387505  0.63228922  0.70773097    -0.72400
O2535       O  0.74944147  0.68160237  0.70779549    -0.72300
O2536       O  0.81468262  0.71521078  0.79380571    -0.72400
O2537       O  0.81085275  0.71602092  0.70621709    -0.72300
O2538       O  0.75405233  0.68221389  0.79498378    -0.72500
V2539       V  0.80510271  0.65026715  0.74955512     1.35200
V2540       V  0.78251160  0.69803462  0.75058975     1.35200
C2541       C  0.75705465  0.65192676  0.80958590     0.76900
C2542       C  0.83200081  0.69564497  0.69154100     0.77000
C2543       C  0.83669314  0.69444549  0.80722920     0.76900
C2544       C  0.75072812  0.65085636  0.69329058     0.76800
C2545       C  0.54188420  0.88688755  0.56483428    -0.02400
C2546       C  0.55384011  0.91188149  0.59532227     0.07300
C2547       C  0.58779186  0.91211423  0.60849596    -0.02500
C2548       C  0.60880657  0.88925255  0.58905797    -0.02500
C2549       C  0.59474098  0.85807946  0.57344015     0.07500
C2550       C  0.56213362  0.85899909  0.55539703    -0.02700
Br2551     Br  0.54381025  0.81924919  0.52518105    -0.01200
Br2552     Br  0.99749370  0.88810811  0.53863906    -0.01300
Br2553     Br  0.65547134  0.90077612  0.58171939    -0.01200
Br2554     Br  0.60518301  0.93884306  0.65625639    -0.01200
C2555       C  0.61154534  0.60052704  0.65558577    -0.02400
C2556       C  0.64150549  0.58165718  0.65769406     0.07300
C2557       C  0.63771154  0.54597143  0.64970585    -0.02500
C2558       C  0.61322635  0.53474431  0.61981305    -0.02500
C2559       C  0.58393884  0.55341892  0.61460035     0.07500
C2560       C  0.58258502  0.58603920  0.63468044    -0.02700
Br2561     Br  0.54131864  0.61078513  0.63225432    -0.01200
Br2562     Br  0.61098554  0.64634655  0.67912997    -0.01300
Br2563     Br  0.62179582  0.99741343  0.58185559    -0.01200
Br2564     Br  0.66578802  0.51310701  0.67867026    -0.01200
C2565       C  0.90826107  0.61678556  0.57823380    -0.02400
C2566       C  0.91171039  0.64121918  0.61134222     0.07300
C2567       C  0.92642966  0.63045636  0.65171566    -0.02500
C2568       C  0.94346878  0.59967050  0.65509550    -0.02500
C2569       C  0.94363997  0.57763488  0.61993483     0.07500
C2570       C  0.92347969  0.58473635  0.58303556    -0.02700
Br2571     Br  0.91338800  0.54937442  0.54036211    -0.01200
Br2572     Br  0.87937146  0.62380699  0.52889867    -0.01300
Br2573     Br  0.96643012  0.58849326  0.70858282    -0.01200
Br2574     Br  0.92279854  0.65605564  0.70517211    -0.01200
C2575       C  0.88745651  0.89092955  0.66134561    -0.02400
C2576       C  0.85799815  0.90989280  0.66619073     0.07300
C2577       C  0.86234892  0.94578276  0.67019913    -0.02500
C2578       C  0.88922979  0.96229015  0.65031452    -0.02500
C2579       C  0.91538162  0.94252341  0.63445144     0.07500
C2580       C  0.91583196  0.90708780  0.64422647    -0.02700
Br2581     Br  0.95529577  0.88081984  0.63508944    -0.01200
Br2582     Br  0.88828146  0.84282894  0.67662125    -0.01300
Br2583     Br  0.88957062  0.51160134  0.64543814    -0.01200
Br2584     Br  0.83084678  0.97142045  0.70210049    -0.01200
C2585       C  0.61818405  0.54325268  0.85347791    -0.02400
C2586       C  0.59027452  0.56412749  0.85494940     0.07300
C2587       C  0.59044595  0.59587765  0.83292472    -0.02500
C2588       C  0.62085404  0.60857130  0.81704138    -0.02500
C2589       C  0.64937814  0.58783717  0.82100248     0.07500
C2590       C  0.64338693  0.55247751  0.82611220    -0.02700
Br2591     Br  0.67262951  0.51900495  0.80274883    -0.01200
Br2592     Br  0.62514392  0.00826270  0.89556231    -0.01300
Br2593     Br  0.62524604  0.65552758  0.79781827    -0.01200
Br2594     Br  0.55058146  0.62263156  0.82752203    -0.01200
C2595       C  0.53602286  0.89254090  0.87752604    -0.02400
C2596       C  0.55599664  0.91890675  0.85975630     0.07300
C2597       C  0.59083251  0.91737463  0.86615756    -0.02500
C2598       C  0.60475887  0.89242079  0.89336657    -0.02500
C2599       C  0.58614313  0.86182615  0.90162231     0.07500
C2600       C  0.55070861  0.86481180  0.89929425    -0.02700
Br2601     Br  0.52150646  0.83062619  0.92438189    -0.01200
Br2602     Br  0.98809183  0.89358329  0.87082145    -0.01300
Br2603     Br  0.65049901  0.89771126  0.91456390    -0.01200
Br2604     Br  0.61917429  0.94276217  0.82888417    -0.01200
C2605       C  0.91336835  0.93128246  0.82624920    -0.02400
C2606       C  0.92363513  0.94991864  0.86373744     0.07300
C2607       C  0.90326958  0.94968219  0.89904034    -0.02500
C2608       C  0.87304770  0.93110229  0.89726750    -0.02500
C2609       C  0.86014904  0.91618149  0.85774770     0.07500
C2610       C  0.88199531  0.91392924  0.82370618    -0.02700
Br2611     Br  0.87294958  0.88218290  0.77742218    -0.01200
Br2612     Br  0.94213222  0.92800261  0.77789511    -0.01300
Br2613     Br  0.85145617  0.92528871  0.95187479    -0.01200
Br2614     Br  0.91457554  0.97729773  0.94945177    -0.01200
C2615       C  0.91696719  0.58442831  0.88637873    -0.02400
C2616       C  0.95200915  0.58877883  0.89025809     0.07300
C2617       C  0.96569765  0.61539196  0.91691938    -0.02500
C2618       C  0.94477254  0.64103415  0.93179522    -0.02500
C2619       C  0.91122242  0.64143927  0.91687848     0.07500
C2620       C  0.89654576  0.60963015  0.90321065    -0.02700
Br2621     Br  0.84944171  0.59987945  0.91097147    -0.01200
Br2622     Br  0.89698283  0.54363418  0.85997127    -0.01300
Br2623     Br  0.96195035  0.67730313  0.96907842    -0.01200
Br2624     Br  0.51285825  0.61756410  0.93223320    -0.01200
loop_ 
_geom_bond_atom_site_label_1 
_geom_bond_atom_site_label_2 
_geom_bond_distance 
_geom_bond_site_symmetry_2 
_ccdc_geom_bond_type 
O1            V9   1.853       .  S
O1           C11   1.250       .  A
O2         V1977   1.852       .  S
O2           C12   1.248       .  A
O3         V1321   1.906       .  S
O3           C13   1.272       .  A
O4          V665   1.907       .  S
O4           C14   1.268       .  A
O5         V1322   1.849       .  S
O5           C14   1.250       .  A
O6          V666   1.849       .  S
O6           C13   1.246       .  A
O7           V10   1.927       .  S
O7           C12   1.274       .  A
O8         V1978   1.947       .  S
O8           C11   1.278       .  A
V9         O1970   1.852   1_455  S
V9         O1315   1.906   1_455  S
V9          O660   1.907       .  S
V9         V1978   2.087       .  T
V10        O1317   1.849       .  S
V10         O662   1.849   1_545  S
V10        O1976   1.947   1_545  S
V10        V1977   2.087       .  T
C11         C300   1.475       .  S
C12         C320   1.460       .  S
C13         C310   1.469       .  S
C14         C290   1.441       .  S
O15          V23   1.849   1_455  S
O15          C25   1.250       .  A
O16        V1991   1.843   1_545  S
O16          C26   1.246       .  A
O17         V679   1.933   1_445  S
O17          C27   1.274       .  A
O18        V1335   1.938       .  S
O18          C28   1.277       .  A
O19         V680   1.852       .  S
O19          C28   1.249       .  A
O20        V1336   1.853   1_545  S
O20          C27   1.251       .  A
O21          V24   1.905   1_545  S
O21          C26   1.270       .  A
O22        V1992   1.914       .  S
O22          C25   1.271       .  A
V23        O1984   1.843       .  S
V23         O673   1.933   1_655  S
V23        O1330   1.938       .  S
V23        V1992   2.079   1_655  T
V24         O675   1.852       .  S
V24        O1332   1.853   1_565  S
V24        O1990   1.914       .  S
V24        V1991   2.079       .  T
C25         C250   1.461       .  S
C26         C273   1.465       .  S
C27         C263   1.463       .  S
C28         C283   1.466       .  S
O29         V365   1.901   1_554  S
O29          C39   1.260       .  A
O30          V37   1.882       .  S
O30          C40   1.266       .  A
O31         V365   1.884   1_554  S
O31          C41   1.267       .  A
O32          V37   1.916       .  S
O32          C42   1.265       .  A
O33          V38   1.944       .  S
O33          C42   1.276       .  A
O34         V366   1.946   1_554  S
O34          C41   1.270       .  A
O35          V38   1.942       .  S
O35          C40   1.269       .  A
O36         V366   1.922   1_554  S
O36          C39   1.272       .  A
V37         O357   1.901       .  S
V37         O359   1.884       .  S
V37          V38   2.082       .  T
V38         O362   1.946       .  S
V38         O364   1.922       .  S
C39         C170   1.480       .  S
C40          C81   1.503       .  S
C41          C72   1.509       .  S
C42         C155   1.509       .  S
C43          C44   1.495       .  S
C43          C49   1.518       .  S
C43          C47   1.544       .  S
C43         C313   1.533       .  S
C44          H51   1.091       .  S
C44          C45   1.347       .  D
C45         C136   1.495       .  S
C45          C46   1.567       .  S
C46          C50   1.584       .  S
C46          C48   1.578       .  S
C46          H52   1.104       .  S
C47          H53   1.079       .  S
C47          C48   1.383       .  D
C48         C149   1.493       .  S
C49          H54   1.087       .  S
C49          C50   1.353       .  D
C50         C111   1.531       .  S
C55          C56   1.523       .  S
C55          C61   1.535       .  S
C55          C59   1.515       .  S
C55         C280   1.542       .  S
C56          H63   1.085       .  S
C56          C57   1.368       .  D
C57         C152   1.499       .  S
C57          C58   1.576       .  S
C58          C62   1.586       .  S
C58          C60   1.569       .  S
C58          H64   1.101       .  S
C59          H65   1.082       .  S
C59          C60   1.361       .  D
C60         C137   1.506       .  S
C61          H66   1.084       .  S
C61          C62   1.363       .  D
C62         C112   1.537       .  S
C67          C68   1.534       .  S
C67          C73   1.533       .  S
C67          C71   1.526       .  S
C67         C260   1.550       .  S
C68          H75   1.082       .  S
C68          C69   1.378       .  D
C69         C248   1.506       .  S
C69          C70   1.580       .  S
C70          C74   1.580       .  S
C70          C72   1.566       .  S
C70          H76   1.110       .  S
C71          H77   1.085       .  S
C71          C72   1.361       .  D
C73          H78   1.080       .  S
C73          C74   1.345       .  D
C74         C113   1.523       .  S
C79          C80   1.527       .  S
C79          C85   1.532       .  S
C79          C83   1.505       .  S
C79         C293   1.523       .  S
C80          H87   1.086       .  S
C80          C81   1.362       .  D
C81          C82   1.567       .  S
C82          C86   1.575       .  S
C82          C84   1.574       .  S
C82          H88   1.110       .  S
C83          H89   1.083       .  S
C83          C84   1.358       .  D
C84         C245   1.473       .  S
C85          H90   1.082       .  S
C85          C86   1.349       .  D
C86         C114   1.513       .  S
N91         H123   1.043       .  S
N91          C95   1.357       .  A
N91         C424   1.356       .  A
N92         C100   1.365       .  A
N92         C755   1.365   1_545  A
N93         H124   1.040       .  S
N93          C97   1.354       .  A
N93         C426   1.354       .  A
N94         C102   1.369       .  A
N94         C757   1.367   1_545  A
C95         C103   1.381       .  A
C95         C111   1.414       .  A
C96         N419   1.356   1_554  A
C96         C112   1.419       .  A
C96         C104   1.385       .  A
C97         C105   1.381       .  A
C97         C114   1.401       .  A
C98         N421   1.354       .  A
C98         C113   1.403       .  A
C98         C106   1.381       .  A
C99         N748   1.365       .  A
C99         C111   1.446       .  A
C99         C107   1.390       .  A
C100        C114   1.432       .  A
C100        C108   1.385       .  A
C101        N750   1.367       .  A
C101        C109   1.389       .  A
C101        C112   1.450       .  A
C102        C110   1.384       .  A
C102        C113   1.438       .  A
C103        C432   1.374       .  A
C103        H115   1.076       .  S
C104        C431   1.374   1_554  A
C104        H116   1.073       .  S
C105        C434   1.356       .  A
C105        H117   1.077       .  S
C106        C433   1.356   1_554  A
C106        H118   1.075       .  S
C107        C764   1.376       .  A
C107        H119   1.082       .  S
C108        C763   1.376   1_545  A
C108        H120   1.083       .  S
C109        C766   1.379       .  A
C109        H121   1.082       .  S
C110        C765   1.379   1_545  A
C110        H122   1.082       .  S
O125        V461   1.899   1_554  S
O125        C135   1.261       .  A
O126        V133   1.860       .  S
O126        C136   1.265       .  A
O127        V461   1.858   1_554  S
O127        C137   1.261       .  A
O128        V133   1.898       .  S
O128        C138   1.258       .  A
O129        V134   1.942       .  S
O129        C138   1.278       .  A
O130        V462   1.956   1_554  S
O130        C137   1.273       .  A
O131        V134   1.941       .  S
O131        C136   1.266       .  A
O132        V462   1.923   1_554  S
O132        C135   1.270       .  A
V133        O453   1.899       .  S
V133        O455   1.858       .  S
V133        V134   2.082       .  T
V134        O458   1.956       .  S
V134        O460   1.923       .  S
C135        C182   1.481       .  S
C138        C191   1.495       .  S
O139        V147   1.900       .  S
O139        C149   1.260       .  A
O140        V147   1.869       .  S
O140        C150   1.264       .  A
O141        V147   1.873       .  S
O141        C151   1.267       .  A
O142        V147   1.910       .  S
O142        C152   1.262       .  A
O143        V148   1.937       .  S
O143        C152   1.275       .  A
O144        V148   1.953       .  S
O144        C151   1.271       .  A
O145        V148   1.947       .  S
O145        C150   1.270       .  A
O146        V148   1.937       .  S
O146        C149   1.275       .  A
V147        V148   2.077       .  T
C150        C167   1.501       .  S
C151        C158   1.515       .  S
C153        C154   1.542       .  S
C153        C159   1.518       .  S
C153        C157   1.526       .  S
C153        C303   1.560       .  S
C154        H161   1.083       .  S
C154        C155   1.384       .  D
C155        C156   1.574       .  S
C156        C160   1.577       .  S
C156        C158   1.568       .  S
C156        H162   1.110       .  S
C157        H163   1.080       .  S
C157        C158   1.358       .  D
C159        H164   1.084       .  S
C159        C160   1.346       .  D
C160        C222   1.508       .  S
C165        C166   1.522       .  S
C165        C171   1.536       .  S
C165        C169   1.510       .  S
C165        C253   1.524       .  S
C166        H173   1.080       .  S
C166        C167   1.357       .  D
C167        C168   1.565       .  S
C168        C172   1.587       .  S
C168        C170   1.578       .  S
C168        H174   1.110       .  S
C169        H175   1.085       .  S
C169        C170   1.360       .  D
C171        H176   1.087       .  S
C171        C172   1.356       .  D
C172        C221   1.527       .  S
C177        C178   1.496       .  S
C177        C183   1.512       .  S
C177        C181   1.543       .  S
C177        C270   1.528       .  S
C178        H185   1.091       .  S
C178        C179   1.348       .  D
C179        C246   1.503       .  S
C179        C180   1.570       .  S
C180        C184   1.580       .  S
C180        C182   1.570       .  S
C180        H186   1.106       .  S
C181        H187   1.079       .  S
C181        C182   1.382       .  D
C183        H188   1.088       .  S
C183        C184   1.350       .  D
C184        C224   1.522       .  S
C189        C190   1.520       .  S
C189        C195   1.536       .  S
C189        C193   1.518       .  S
C189        C323   1.535       .  S
C190        H197   1.085       .  S
C190        C191   1.362       .  D
C191        C192   1.571       .  S
C192        C196   1.593       .  S
C192        C194   1.558       .  S
C192        H198   1.103       .  S
C193        H199   1.080       .  S
C193        C194   1.362       .  D
C194        C247   1.493       .  S
C195        H200   1.085       .  S
C195        C196   1.367       .  D
C196        C223   1.553       .  S
N201        H233   1.044       .  S
N201        C206   1.354       .  A
N201        C205   1.358       .  A
N202        C210   1.362       .  A
N202       C1521   1.369       .  A
N203        H234   1.038       .  S
N203        C208   1.366       .  A
N203        C207   1.357       .  A
N204        C212   1.367       .  A
N204       C1523   1.363       .  A
C205        C213   1.376       .  A
C205        C221   1.398       .  A
C206        C222   1.411       .  A
C206        C214   1.386       .  A
C207        C215   1.379       .  A
C207        C224   1.421       .  A
C208        C223   1.435       .  A
C208        C216   1.385       .  A
C209       N1514   1.369   1_455  A
C209        C221   1.433       .  A
C209        C217   1.382       .  A
C210        C224   1.450       .  A
C210        C218   1.393       .  A
C211       N1516   1.363       .  A
C211        C219   1.387       .  A
C211        C222   1.437       .  A
C212        C220   1.389       .  A
C212        C223   1.452       .  A
C213        C214   1.352       .  A
C213        H225   1.078       .  S
C214        H226   1.073       .  S
C215        C216   1.364       .  A
C215        H227   1.073       .  S
C216        H228   1.065       .  S
C217       C1530   1.379   1_455  A
C217        H229   1.082       .  S
C218       C1529   1.379       .  A
C218        H230   1.083       .  S
C219       C1532   1.379   1_455  A
C219        H231   1.083       .  S
C220       C1531   1.379       .  A
C220        H232   1.081       .  S
O235        V243   1.894       .  S
O235        C245   1.260       .  A
O236        V243   1.856       .  S
O236        C246   1.265       .  A
O237        V243   1.856       .  S
O237        C247   1.260       .  A
O238        V243   1.903       .  S
O238        C248   1.260       .  A
O239        V244   1.950       .  S
O239        C248   1.279       .  A
O240        V244   1.945       .  S
O240        C247   1.270       .  A
O241        V244   1.947       .  S
O241        C246   1.268       .  A
O242        V244   1.923       .  S
O242        C245   1.271       .  A
V243        V244   2.082       .  T
C249        C250   1.425       .  A
C249        C254   1.403       .  A
C249      Br1568   1.932   1_455  S
C250        C251   1.405       .  A
C251        C252   1.390       .  A
C251       Br258   1.925       .  S
C252        C253   1.402       .  A
C252       Br257   1.928       .  S
C253        C254   1.405       .  A
C254       Br255   1.926       .  S
Br256      C1561   1.932       .  S
C259        C260   1.418       .  A
C259        C264   1.415       .  A
C259       Br266   1.925       .  S
C260        C261   1.410       .  A
C261        C262   1.396       .  A
C261       Br268   1.931       .  S
C262        C263   1.396       .  A
C262       Br923   1.919   1_545  S
C263        C264   1.416       .  A
C264       Br265   1.927       .  S
Br267       C918   1.919       .  S
C269        C270   1.408       .  A
C269        C274   1.404       .  A
C269       Br276   1.929       .  S
C270        C271   1.450       .  A
C271        C272   1.392       .  A
C271       Br278   1.962       .  S
C272        C273   1.396       .  A
C272       Br277   1.947       .  S
C273        C274   1.424       .  A
C274       Br275   1.943       .  S
C279        C280   1.415       .  A
C279        C284   1.406       .  A
C279       Br286   1.930       .  S
C280        C281   1.404       .  A
C281        C282   1.403       .  A
C281       Br288   1.928       .  S
C282        C283   1.414       .  A
C282       Br943   1.920       .  S
C283        C284   1.411       .  A
C284       Br285   1.927       .  S
Br287       C938   1.920   1_545  S
C289        C290   1.396       .  A
C289        C294   1.387       .  A
C289       Br952   1.920       .  S
C290        C291   1.416       .  A
C291        C292   1.407       .  A
C291       Br298   1.925       .  S
C292        C293   1.413       .  A
C292       Br297   1.928       .  S
C293        C294   1.398       .  A
C294       Br295   1.927       .  S
Br296       C945   1.920       .  S
C299        C300   1.411       .  A
C299        C304   1.408       .  A
C299      Br1618   1.921   1_455  S
C300        C301   1.402       .  A
C301        C302   1.408       .  A
C301       Br308   1.916       .  S
C302        C303   1.415       .  A
C302       Br307   1.931       .  S
C303        C304   1.422       .  A
C304       Br305   1.933       .  S
Br306      C1611   1.921       .  S
C309        C310   1.425       .  A
C309        C314   1.408       .  A
C309       Br316   1.942       .  S
C310        C311   1.398       .  A
C311        C312   1.390       .  A
C311       Br318   1.946       .  S
C312        C313   1.445       .  A
C312       Br317   1.960       .  S
C313        C314   1.408       .  A
C314       Br315   1.924       .  S
C319        C320   1.407       .  A
C319        C324   1.402       .  A
C319       Br326   1.929       .  S
C320        C321   1.416       .  A
C321        C322   1.404       .  A
C321      Br1640   1.929       .  S
C322        C323   1.406       .  A
C322       Br327   1.928       .  S
C323        C324   1.413       .  A
C324       Br325   1.933       .  S
Br328      C1633   1.929   1_455  S
O329        V337   1.853       .  S
O329        C339   1.250       .  A
O330       V2305   1.852       .  S
O330        C340   1.248       .  A
O331       V1649   1.906       .  S
O331        C341   1.272       .  A
O332        V993   1.907       .  S
O332        C342   1.268       .  A
O333       V1650   1.849       .  S
O333        C342   1.250       .  A
O334        V994   1.849       .  S
O334        C341   1.246       .  A
O335        V338   1.927       .  S
O335        C340   1.274       .  A
O336       V2306   1.947       .  S
O336        C339   1.278       .  A
V337       O2298   1.852   1_455  S
V337       O1643   1.906   1_455  S
V337        O988   1.907       .  S
V337       V2306   2.087       .  T
V338       O1645   1.849       .  S
V338        O990   1.849   1_545  S
V338       O2304   1.947   1_545  S
V338       V2305   2.087       .  T
C339        C628   1.475       .  S
C340        C648   1.460       .  S
C341        C638   1.469       .  S
C342        C618   1.441       .  S
O343        V351   1.849   1_455  S
O343        C353   1.250       .  A
O344       V2319   1.843   1_545  S
O344        C354   1.246       .  A
O345       V1007   1.933   1_445  S
O345        C355   1.274       .  A
O346       V1663   1.938       .  S
O346        C356   1.277       .  A
O347       V1008   1.852       .  S
O347        C356   1.249       .  A
O348       V1664   1.853   1_545  S
O348        C355   1.251       .  A
O349        V352   1.905   1_545  S
O349        C354   1.270       .  A
O350       V2320   1.914       .  S
O350        C353   1.271       .  A
V351       O2312   1.843       .  S
V351       O1001   1.933   1_655  S
V351       O1658   1.938       .  S
V351       V2320   2.079   1_655  T
V352       O1003   1.852       .  S
V352       O1660   1.853   1_565  S
V352       O2318   1.914       .  S
V352       V2319   2.079       .  T
C353        C578   1.460       .  S
C354        C601   1.465       .  S
C355        C591   1.463       .  S
C356        C611   1.466       .  S
O357        C367   1.260       .  A
O358        V365   1.882       .  S
O358        C368   1.266       .  A
O359        C369   1.267       .  A
O360        V365   1.916       .  S
O360        C370   1.265       .  A
O361        V366   1.944       .  S
O361        C370   1.276       .  A
O362        C369   1.270       .  A
O363        V366   1.942       .  S
O363        C368   1.269       .  A
O364        C367   1.272       .  A
V365        V366   2.082       .  T
C367        C498   1.480       .  S
C368        C409   1.503       .  S
C369        C400   1.509       .  S
C370        C483   1.509       .  S
C371        C372   1.495       .  S
C371        C377   1.518       .  S
C371        C375   1.544       .  S
C371        C641   1.533       .  S
C372        H379   1.091       .  S
C372        C373   1.347       .  D
C373        C464   1.495       .  S
C373        C374   1.567       .  S
C374        C378   1.584       .  S
C374        C376   1.578       .  S
C374        H380   1.104       .  S
C375        H381   1.079       .  S
C375        C376   1.383       .  D
C376        C477   1.493       .  S
C377        H382   1.087       .  S
C377        C378   1.353       .  D
C378        C439   1.531       .  S
C383        C384   1.523       .  S
C383        C389   1.535       .  S
C383        C387   1.515       .  S
C383        C608   1.542       .  S
C384        H391   1.085       .  S
C384        C385   1.368       .  D
C385        C480   1.499       .  S
C385        C386   1.576       .  S
C386        C390   1.586       .  S
C386        C388   1.569       .  S
C386        H392   1.101       .  S
C387        H393   1.082       .  S
C387        C388   1.361       .  D
C388        C465   1.506       .  S
C389        H394   1.084       .  S
C389        C390   1.363       .  D
C390        C440   1.537       .  S
C395        C396   1.534       .  S
C395        C401   1.533       .  S
C395        C399   1.526       .  S
C395        C588   1.550       .  S
C396        H403   1.082       .  S
C396        C397   1.378       .  D
C397        C576   1.506       .  S
C397        C398   1.580       .  S
C398        C402   1.580       .  S
C398        C400   1.566       .  S
C398        H404   1.110       .  S
C399        H405   1.085       .  S
C399        C400   1.361       .  D
C401        H406   1.080       .  S
C401        C402   1.345       .  D
C402        C441   1.523       .  S
C407        C408   1.527       .  S
C407        C413   1.532       .  S
C407        C411   1.505       .  S
C407        C621   1.523       .  S
C408        H415   1.086       .  S
C408        C409   1.362       .  D
C409        C410   1.567       .  S
C410        C414   1.575       .  S
C410        C412   1.574       .  S
C410        H416   1.110       .  S
C411        H417   1.083       .  S
C411        C412   1.358       .  D
C412        C573   1.473       .  S
C413        H418   1.082       .  S
C413        C414   1.349       .  D
C414        C442   1.513       .  S
N419        H451   1.043       .  S
N419        C423   1.357       .  A
N420       C1083   1.365   1_545  A
N420        C428   1.365       .  A
N421        H452   1.040       .  S
N421        C425   1.354   1_554  A
N422       C1085   1.367   1_545  A
N422        C430   1.369       .  A
C423        C431   1.381       .  A
C423        C439   1.414       .  A
C424        C440   1.419       .  A
C424        C432   1.385       .  A
C425        C433   1.380       .  A
C425        C442   1.401       .  A
C426        C441   1.403       .  A
C426        C434   1.381       .  A
C427       N1076   1.365       .  A
C427        C439   1.446       .  A
C427        C435   1.390       .  A
C428        C442   1.432       .  A
C428        C436   1.385       .  A
C429       N1078   1.367       .  A
C429        C437   1.389       .  A
C429        C440   1.450       .  A
C430        C438   1.384       .  A
C430        C441   1.438       .  A
C431        H443   1.076       .  S
C432        H444   1.073       .  S
C433        H445   1.077       .  S
C434        H446   1.075       .  S
C435       C1092   1.376       .  A
C435        H447   1.082       .  S
C436       C1091   1.376   1_545  A
C436        H448   1.083       .  S
C437       C1094   1.379       .  A
C437        H449   1.082       .  S
C438       C1093   1.379   1_545  A
C438        H450   1.082       .  S
O453        C463   1.261       .  A
O454        V461   1.860       .  S
O454        C464   1.265       .  A
O455        C465   1.261       .  A
O456        V461   1.898       .  S
O456        C466   1.258       .  A
O457        V462   1.942       .  S
O457        C466   1.278       .  A
O458        C465   1.273       .  A
O459        V462   1.941       .  S
O459        C464   1.266       .  A
O460        C463   1.270       .  A
V461        V462   2.082       .  T
C463        C510   1.481       .  S
C466        C519   1.495       .  S
O467        V475   1.900       .  S
O467        C477   1.260       .  A
O468        V475   1.869       .  S
O468        C478   1.264       .  A
O469        V475   1.873       .  S
O469        C479   1.267       .  A
O470        V475   1.910       .  S
O470        C480   1.262       .  A
O471        V476   1.937       .  S
O471        C480   1.275       .  A
O472        V476   1.953       .  S
O472        C479   1.271       .  A
O473        V476   1.947       .  S
O473        C478   1.270       .  A
O474        V476   1.937       .  S
O474        C477   1.275       .  A
V475        V476   2.077       .  T
C478        C495   1.501       .  S
C479        C486   1.515       .  S
C481        C482   1.542       .  S
C481        C487   1.518       .  S
C481        C485   1.526       .  S
C481        C631   1.560       .  S
C482        H489   1.083       .  S
C482        C483   1.384       .  D
C483        C484   1.574       .  S
C484        C488   1.577       .  S
C484        C486   1.568       .  S
C484        H490   1.110       .  S
C485        H491   1.080       .  S
C485        C486   1.358       .  D
C487        H492   1.084       .  S
C487        C488   1.346       .  D
C488        C550   1.508       .  S
C493        C494   1.522       .  S
C493        C499   1.536       .  S
C493        C497   1.510       .  S
C493        C581   1.524       .  S
C494        H501   1.080       .  S
C494        C495   1.357       .  D
C495        C496   1.565       .  S
C496        C500   1.587       .  S
C496        C498   1.578       .  S
C496        H502   1.110       .  S
C497        H503   1.085       .  S
C497        C498   1.360       .  D
C499        H504   1.087       .  S
C499        C500   1.356       .  D
C500        C549   1.527       .  S
C505        C506   1.496       .  S
C505        C511   1.512       .  S
C505        C509   1.543       .  S
C505        C598   1.528       .  S
C506        H513   1.091       .  S
C506        C507   1.348       .  D
C507        C574   1.503       .  S
C507        C508   1.570       .  S
C508        C512   1.580       .  S
C508        C510   1.570       .  S
C508        H514   1.106       .  S
C509        H515   1.079       .  S
C509        C510   1.382       .  D
C511        H516   1.088       .  S
C511        C512   1.350       .  D
C512        C552   1.522       .  S
C517        C518   1.520       .  S
C517        C523   1.536       .  S
C517        C521   1.518       .  S
C517        C651   1.535       .  S
C518        H525   1.085       .  S
C518        C519   1.362       .  D
C519        C520   1.571       .  S
C520        C524   1.593       .  S
C520        C522   1.558       .  S
C520        H526   1.103       .  S
C521        H527   1.080       .  S
C521        C522   1.362       .  D
C522        C575   1.493       .  S
C523        H528   1.085       .  S
C523        C524   1.367       .  D
C524        C551   1.553       .  S
N529        H561   1.044       .  S
N529        C534   1.354       .  A
N529        C533   1.358       .  A
N530       C1849   1.369       .  A
N530        C538   1.362       .  A
N531        H562   1.038       .  S
N531        C536   1.366       .  A
N531        C535   1.357       .  A
N532       C1851   1.363       .  A
N532        C540   1.367       .  A
C533        C541   1.376       .  A
C533        C549   1.398       .  A
C534        C550   1.411       .  A
C534        C542   1.386       .  A
C535        C543   1.379       .  A
C535        C552   1.421       .  A
C536        C551   1.435       .  A
C536        C544   1.385       .  A
C537       N1842   1.369   1_455  A
C537        C549   1.433       .  A
C537        C545   1.382       .  A
C538        C552   1.450       .  A
C538        C546   1.393       .  A
C539       N1844   1.363       .  A
C539        C547   1.387       .  A
C539        C550   1.437       .  A
C540        C548   1.389       .  A
C540        C551   1.452       .  A
C541        C542   1.352       .  A
C541        H553   1.078       .  S
C542        H554   1.073       .  S
C543        C544   1.364       .  A
C543        H555   1.073       .  S
C544        H556   1.065       .  S
C545       C1858   1.379   1_455  A
C545        H557   1.082       .  S
C546       C1857   1.379       .  A
C546        H558   1.083       .  S
C547       C1860   1.379   1_455  A
C547        H559   1.083       .  S
C548       C1859   1.379       .  A
C548        H560   1.081       .  S
O563        V571   1.894       .  S
O563        C573   1.260       .  A
O564        V571   1.856       .  S
O564        C574   1.265       .  A
O565        V571   1.856       .  S
O565        C575   1.260       .  A
O566        V571   1.903       .  S
O566        C576   1.260       .  A
O567        V572   1.950       .  S
O567        C576   1.279       .  A
O568        V572   1.945       .  S
O568        C575   1.270       .  A
O569        V572   1.947       .  S
O569        C574   1.268       .  A
O570        V572   1.923       .  S
O570        C573   1.271       .  A
V571        V572   2.082       .  T
C577        C578   1.425       .  A
C577        C582   1.403       .  A
C577      Br1896   1.932   1_455  S
C578        C579   1.405       .  A
C579        C580   1.390       .  A
C579       Br586   1.925       .  S
C580        C581   1.402       .  A
C580       Br585   1.928       .  S
C581        C582   1.405       .  A
C582       Br583   1.926       .  S
Br584      C1889   1.932       .  S
C587        C588   1.418       .  A
C587        C592   1.415       .  A
C587       Br594   1.925       .  S
C588        C589   1.410       .  A
C589        C590   1.396       .  A
C589       Br596   1.931       .  S
C590        C591   1.396       .  A
C590      Br1251   1.919   1_545  S
C591        C592   1.416       .  A
C592       Br593   1.927       .  S
Br595      C1246   1.919       .  S
C597        C598   1.408       .  A
C597        C602   1.404       .  A
C597       Br604   1.929       .  S
C598        C599   1.450       .  A
C599        C600   1.392       .  A
C599       Br606   1.962       .  S
C600        C601   1.396       .  A
C600       Br605   1.947       .  S
C601        C602   1.424       .  A
C602       Br603   1.943       .  S
C607        C608   1.415       .  A
C607        C612   1.406       .  A
C607       Br614   1.930       .  S
C608        C609   1.404       .  A
C609        C610   1.403       .  A
C609       Br616   1.928       .  S
C610        C611   1.414       .  A
C610      Br1271   1.920       .  S
C611        C612   1.411       .  A
C612       Br613   1.927       .  S
Br615      C1266   1.920   1_545  S
C617        C618   1.396       .  A
C617        C622   1.387       .  A
C617      Br1280   1.920       .  S
C618        C619   1.416       .  A
C619        C620   1.407       .  A
C619       Br626   1.925       .  S
C620        C621   1.413       .  A
C620       Br625   1.928       .  S
C621        C622   1.398       .  A
C622       Br623   1.927       .  S
Br624      C1273   1.920       .  S
C627        C628   1.411       .  A
C627        C632   1.408       .  A
C627      Br1946   1.921   1_455  S
C628        C629   1.402       .  A
C629        C630   1.408       .  A
C629       Br636   1.916       .  S
C630        C631   1.415       .  A
C630       Br635   1.931       .  S
C631        C632   1.422       .  A
C632       Br633   1.933       .  S
Br634      C1939   1.921       .  S
C637        C638   1.425       .  A
C637        C642   1.408       .  A
C637       Br644   1.942       .  S
C638        C639   1.398       .  A
C639        C640   1.390       .  A
C639       Br646   1.946       .  S
C640        C641   1.445       .  A
C640       Br645   1.960       .  S
C641        C642   1.408       .  A
C642       Br643   1.924       .  S
C647        C648   1.407       .  A
C647        C652   1.402       .  A
C647       Br654   1.929       .  S
C648        C649   1.416       .  A
C649        C650   1.404       .  A
C649      Br1968   1.929       .  S
C650        C651   1.406       .  A
C650       Br655   1.928       .  S
C651        C652   1.413       .  A
C652       Br653   1.934       .  S
Br656      C1961   1.929   1_455  S
O657        V665   1.853   1_565  S
O657        C667   1.250       .  A
O658       V1321   1.852       .  S
O658        C668   1.248       .  A
O659       V1977   1.906   1_565  S
O659        C669   1.272       .  A
O660        C670   1.268       .  A
O661       V1978   1.849       .  S
O661        C670   1.250       .  A
O662        C669   1.246       .  A
O663        V666   1.927       .  S
O663        C668   1.274       .  A
O664       V1322   1.947   1_565  S
O664        C667   1.278       .  A
V665       O1314   1.852   1_455  S
V665       O1971   1.906   1_445  S
V665       V1322   2.087       .  T
V666       O1973   1.849       .  S
V666       O1320   1.947       .  S
V666       V1321   2.087       .  T
C667        C956   1.475       .  S
C668        C976   1.460       .  S
C669        C966   1.469       .  S
C670        C946   1.441       .  S
O671        V679   1.849   1_455  S
O671        C681   1.250       .  A
O672       V1335   1.843       .  S
O672        C682   1.246       .  A
O673        C683   1.274       .  A
O674       V1991   1.938       .  S
O674        C684   1.277       .  A
O675        C684   1.249       .  A
O676       V1992   1.853       .  S
O676        C683   1.251       .  A
O677        V680   1.905       .  S
O677        C682   1.270       .  A
O678       V1336   1.914       .  S
O678        C681   1.271       .  A
V679       O1328   1.843   1_565  S
V679       O1986   1.938       .  S
V679       V1336   2.079   1_655  T
V680       O1988   1.853       .  S
V680       O1334   1.914       .  S
V680       V1335   2.079       .  T
C681        C906   1.461       .  S
C682        C929   1.465       .  S
C683        C919   1.463       .  S
C684        C939   1.466       .  S
O685       V1021   1.901   1_554  S
O685        C695   1.260       .  A
O686        V693   1.882       .  S
O686        C696   1.266       .  A
O687       V1021   1.884   1_554  S
O687        C697   1.267       .  A
O688        V693   1.916       .  S
O688        C698   1.265       .  A
O689        V694   1.944       .  S
O689        C698   1.276       .  A
O690       V1022   1.946   1_554  S
O690        C697   1.270       .  A
O691        V694   1.942       .  S
O691        C696   1.269       .  A
O692       V1022   1.922   1_554  S
O692        C695   1.272       .  A
V693       O1013   1.901       .  S
V693       O1015   1.884       .  S
V693        V694   2.082       .  T
V694       O1018   1.946       .  S
V694       O1020   1.922       .  S
C695        C826   1.480       .  S
C696        C737   1.503       .  S
C697        C728   1.509       .  S
C698        C811   1.509       .  S
C699        C700   1.495       .  S
C699        C705   1.518       .  S
C699        C703   1.544       .  S
C699        C969   1.533       .  S
C700        H707   1.091       .  S
C700        C701   1.347       .  D
C701        C792   1.495       .  S
C701        C702   1.567       .  S
C702        C706   1.584       .  S
C702        C704   1.578       .  S
C702        H708   1.104       .  S
C703        H709   1.079       .  S
C703        C704   1.383       .  D
C704        C805   1.493       .  S
C705        H710   1.087       .  S
C705        C706   1.353       .  D
C706        C767   1.531       .  S
C711        C712   1.523       .  S
C711        C717   1.535       .  S
C711        C715   1.515       .  S
C711        C936   1.542       .  S
C712        H719   1.085       .  S
C712        C713   1.368       .  D
C713        C808   1.499       .  S
C713        C714   1.576       .  S
C714        C718   1.586       .  S
C714        C716   1.569       .  S
C714        H720   1.101       .  S
C715        H721   1.082       .  S
C715        C716   1.361       .  D
C716        C793   1.506       .  S
C717        H722   1.084       .  S
C717        C718   1.363       .  D
C718        C768   1.537       .  S
C723        C724   1.534       .  S
C723        C729   1.533       .  S
C723        C727   1.526       .  S
C723        C916   1.550       .  S
C724        H731   1.082       .  S
C724        C725   1.378       .  D
C725        C904   1.506       .  S
C725        C726   1.580       .  S
C726        C730   1.580       .  S
C726        C728   1.566       .  S
C726        H732   1.110       .  S
C727        H733   1.085       .  S
C727        C728   1.361       .  D
C729        H734   1.080       .  S
C729        C730   1.345       .  D
C730        C769   1.523       .  S
C735        C736   1.527       .  S
C735        C741   1.532       .  S
C735        C739   1.505       .  S
C735        C949   1.523       .  S
C736        H743   1.086       .  S
C736        C737   1.362       .  D
C737        C738   1.567       .  S
C738        C742   1.575       .  S
C738        C740   1.574       .  S
C738        H744   1.110       .  S
C739        H745   1.083       .  S
C739        C740   1.358       .  D
C740        C901   1.473       .  S
C741        H746   1.082       .  S
C741        C742   1.349       .  D
C742        C770   1.513       .  S
N747        H779   1.043       .  S
N747       C1080   1.356       .  A
N747        C751   1.357       .  A
N748        C756   1.365       .  A
N749        H780   1.040       .  S
N749       C1082   1.354       .  A
N749        C753   1.354       .  A
N750        C758   1.369       .  A
C751        C759   1.381       .  A
C751        C767   1.414       .  A
C752       N1075   1.356   1_554  A
C752        C768   1.419       .  A
C752        C760   1.385       .  A
C753        C761   1.381       .  A
C753        C770   1.401       .  A
C754       N1077   1.354       .  A
C754        C769   1.403       .  A
C754        C762   1.381       .  A
C755        C767   1.446       .  A
C755        C763   1.390       .  A
C756        C770   1.432       .  A
C756        C764   1.385       .  A
C757        C765   1.389       .  A
C757        C768   1.450       .  A
C758        C766   1.384       .  A
C758        C769   1.438       .  A
C759       C1088   1.374       .  A
C759        H771   1.076       .  S
C760       C1087   1.374   1_554  A
C760        H772   1.073       .  S
C761       C1090   1.356       .  A
C761        H773   1.077       .  S
C762       C1089   1.356   1_554  A
C762        H774   1.075       .  S
C763        H775   1.082       .  S
C764        H776   1.083       .  S
C765        H777   1.082       .  S
C766        H778   1.082       .  S
O781       V1117   1.899   1_554  S
O781        C791   1.261       .  A
O782        V789   1.860       .  S
O782        C792   1.265       .  A
O783       V1117   1.858   1_554  S
O783        C793   1.261       .  A
O784        V789   1.898       .  S
O784        C794   1.258       .  A
O785        V790   1.942       .  S
O785        C794   1.278       .  A
O786       V1118   1.956   1_554  S
O786        C793   1.273       .  A
O787        V790   1.941       .  S
O787        C792   1.266       .  A
O788       V1118   1.923   1_554  S
O788        C791   1.270       .  A
V789       O1109   1.899       .  S
V789       O1111   1.858       .  S
V789        V790   2.082       .  T
V790       O1114   1.956       .  S
V790       O1116   1.923       .  S
C791        C838   1.481       .  S
C794        C847   1.495       .  S
O795        V803   1.900       .  S
O795        C805   1.260       .  A
O796        V803   1.869       .  S
O796        C806   1.264       .  A
O797        V803   1.873       .  S
O797        C807   1.267       .  A
O798        V803   1.910       .  S
O798        C808   1.262       .  A
O799        V804   1.937       .  S
O799        C808   1.275       .  A
O800        V804   1.953       .  S
O800        C807   1.271       .  A
O801        V804   1.947       .  S
O801        C806   1.270       .  A
O802        V804   1.937       .  S
O802        C805   1.275       .  A
V803        V804   2.077       .  T
C806        C823   1.501       .  S
C807        C814   1.515       .  S
C809        C810   1.542       .  S
C809        C815   1.518       .  S
C809        C813   1.526       .  S
C809        C959   1.560       .  S
C810        H817   1.083       .  S
C810        C811   1.384       .  D
C811        C812   1.574       .  S
C812        C816   1.577       .  S
C812        C814   1.568       .  S
C812        H818   1.110       .  S
C813        H819   1.080       .  S
C813        C814   1.358       .  D
C815        H820   1.084       .  S
C815        C816   1.346       .  D
C816        C878   1.508       .  S
C821        C822   1.522       .  S
C821        C827   1.536       .  S
C821        C825   1.510       .  S
C821        C909   1.524       .  S
C822        H829   1.080       .  S
C822        C823   1.357       .  D
C823        C824   1.565       .  S
C824        C828   1.587       .  S
C824        C826   1.578       .  S
C824        H830   1.110       .  S
C825        H831   1.085       .  S
C825        C826   1.360       .  D
C827        H832   1.087       .  S
C827        C828   1.356       .  D
C828        C877   1.527       .  S
C833        C834   1.496       .  S
C833        C839   1.512       .  S
C833        C837   1.543       .  S
C833        C926   1.528       .  S
C834        H841   1.091       .  S
C834        C835   1.348       .  D
C835        C902   1.503       .  S
C835        C836   1.570       .  S
C836        C840   1.580       .  S
C836        C838   1.570       .  S
C836        H842   1.106       .  S
C837        H843   1.079       .  S
C837        C838   1.382       .  D
C839        H844   1.088       .  S
C839        C840   1.350       .  D
C840        C880   1.522       .  S
C845        C846   1.520       .  S
C845        C851   1.536       .  S
C845        C849   1.518       .  S
C845        C979   1.535       .  S
C846        H853   1.085       .  S
C846        C847   1.362       .  D
C847        C848   1.571       .  S
C848        C852   1.593       .  S
C848        C850   1.558       .  S
C848        H854   1.103       .  S
C849        H855   1.080       .  S
C849        C850   1.362       .  D
C850        C903   1.493       .  S
C851        H856   1.085       .  S
C851        C852   1.367       .  D
C852        C879   1.553       .  S
N857        H889   1.044       .  S
N857        C862   1.354       .  A
N857        C861   1.358       .  A
N858       C2177   1.369       .  A
N858        C866   1.362       .  A
N859        H890   1.038       .  S
N859        C864   1.366       .  A
N859        C863   1.357       .  A
N860       C2179   1.363       .  A
N860        C868   1.367       .  A
C861        C869   1.376       .  A
C861        C877   1.398       .  A
C862        C878   1.411       .  A
C862        C870   1.386       .  A
C863        C871   1.379       .  A
C863        C880   1.421       .  A
C864        C879   1.435       .  A
C864        C872   1.385       .  A
C865       N2170   1.369   1_455  A
C865        C877   1.433       .  A
C865        C873   1.382       .  A
C866        C880   1.450       .  A
C866        C874   1.393       .  A
C867       N2172   1.363       .  A
C867        C875   1.387       .  A
C867        C878   1.437       .  A
C868        C876   1.389       .  A
C868        C879   1.452       .  A
C869        C870   1.352       .  A
C869        H881   1.078       .  S
C870        H882   1.073       .  S
C871        C872   1.364       .  A
C871        H883   1.073       .  S
C872        H884   1.065       .  S
C873       C2186   1.379   1_455  A
C873        H885   1.082       .  S
C874       C2185   1.379       .  A
C874        H886   1.083       .  S
C875       C2188   1.379   1_455  A
C875        H887   1.083       .  S
C876       C2187   1.379       .  A
C876        H888   1.081       .  S
O891        V899   1.894       .  S
O891        C901   1.260       .  A
O892        V899   1.856       .  S
O892        C902   1.265       .  A
O893        V899   1.856       .  S
O893        C903   1.260       .  A
O894        V899   1.903       .  S
O894        C904   1.260       .  A
O895        V900   1.950       .  S
O895        C904   1.279       .  A
O896        V900   1.945       .  S
O896        C903   1.270       .  A
O897        V900   1.947       .  S
O897        C902   1.268       .  A
O898        V900   1.923       .  S
O898        C901   1.271       .  A
V899        V900   2.082       .  T
C905        C906   1.425       .  A
C905        C910   1.403       .  A
C905      Br2224   1.932   1_455  S
C906        C907   1.405       .  A
C907        C908   1.390       .  A
C907       Br914   1.925       .  S
C908        C909   1.402       .  A
C908       Br913   1.928       .  S
C909        C910   1.405       .  A
C910       Br911   1.926       .  S
Br912      C2217   1.932       .  S
C915        C916   1.418       .  A
C915        C920   1.415       .  A
C915       Br922   1.925       .  S
C916        C917   1.410       .  A
C917        C918   1.396       .  A
C917       Br924   1.931       .  S
C918        C919   1.396       .  A
C919        C920   1.416       .  A
C920       Br921   1.927       .  S
C925        C926   1.408       .  A
C925        C930   1.404       .  A
C925       Br932   1.929       .  S
C926        C927   1.450       .  A
C927        C928   1.392       .  A
C927       Br934   1.962       .  S
C928        C929   1.396       .  A
C928       Br933   1.947       .  S
C929        C930   1.424       .  A
C930       Br931   1.943       .  S
C935        C936   1.415       .  A
C935        C940   1.406       .  A
C935       Br942   1.930       .  S
C936        C937   1.404       .  A
C937        C938   1.403       .  A
C937       Br944   1.928       .  S
C938        C939   1.414       .  A
C939        C940   1.411       .  A
C940       Br941   1.927       .  S
C945        C946   1.396       .  A
C945        C950   1.387       .  A
C946        C947   1.416       .  A
C947        C948   1.407       .  A
C947       Br954   1.925       .  S
C948        C949   1.413       .  A
C948       Br953   1.928       .  S
C949        C950   1.398       .  A
C950       Br951   1.927       .  S
C955        C956   1.411       .  A
C955        C960   1.408       .  A
C955      Br2274   1.921   1_455  S
C956        C957   1.402       .  A
C957        C958   1.408       .  A
C957       Br964   1.916       .  S
C958        C959   1.415       .  A
C958       Br963   1.931       .  S
C959        C960   1.422       .  A
C960       Br961   1.933       .  S
Br962      C2267   1.921       .  S
C965        C966   1.425       .  A
C965        C970   1.408       .  A
C965       Br972   1.942       .  S
C966        C967   1.398       .  A
C967        C968   1.390       .  A
C967       Br974   1.946       .  S
C968        C969   1.445       .  A
C968       Br973   1.960       .  S
C969        C970   1.408       .  A
C970       Br971   1.924       .  S
C975        C976   1.407       .  A
C975        C980   1.402       .  A
C975       Br982   1.929       .  S
C976        C977   1.416       .  A
C977        C978   1.404       .  A
C977      Br2296   1.929       .  S
C978        C979   1.406       .  A
C978       Br983   1.928       .  S
C979        C980   1.413       .  A
C980       Br981   1.933       .  S
Br984      C2289   1.929   1_455  S
O985        V993   1.853   1_565  S
O985        C995   1.250       .  A
O986       V1649   1.852       .  S
O986        C996   1.248       .  A
O987       V2305   1.906   1_565  S
O987        C997   1.272       .  A
O988        C998   1.268       .  A
O989       V2306   1.849       .  S
O989        C998   1.250       .  A
O990        C997   1.246       .  A
O991        V994   1.927       .  S
O991        C996   1.274       .  A
O992       V1650   1.947   1_565  S
O992        C995   1.278       .  A
V993       O1642   1.852   1_455  S
V993       O2299   1.906   1_445  S
V993       V1650   2.087       .  T
V994       O2301   1.849       .  S
V994       O1648   1.947       .  S
V994       V1649   2.087       .  T
C995       C1284   1.475       .  S
C996       C1304   1.460       .  S
C997       C1294   1.469       .  S
C998       C1274   1.441       .  S
O999       V1007   1.849   1_455  S
O999       C1009   1.250       .  A
O1000      V1663   1.843       .  S
O1000      C1010   1.246       .  A
O1001      C1011   1.274       .  A
O1002      V2319   1.938       .  S
O1002      C1012   1.277       .  A
O1003      C1012   1.249       .  A
O1004      V2320   1.853       .  S
O1004      C1011   1.251       .  A
O1005      V1008   1.905       .  S
O1005      C1010   1.270       .  A
O1006      V1664   1.914       .  S
O1006      C1009   1.271       .  A
V1007      O1656   1.843   1_565  S
V1007      O2314   1.938       .  S
V1007      V1664   2.079   1_655  T
V1008      O2316   1.853       .  S
V1008      O1662   1.914       .  S
V1008      V1663   2.079       .  T
C1009      C1234   1.461       .  S
C1010      C1257   1.465       .  S
C1011      C1247   1.463       .  S
C1012      C1267   1.466       .  S
O1013      C1023   1.260       .  A
O1014      V1021   1.882       .  S
O1014      C1024   1.266       .  A
O1015      C1025   1.267       .  A
O1016      V1021   1.916       .  S
O1016      C1026   1.265       .  A
O1017      V1022   1.944       .  S
O1017      C1026   1.276       .  A
O1018      C1025   1.270       .  A
O1019      V1022   1.942       .  S
O1019      C1024   1.269       .  A
O1020      C1023   1.272       .  A
V1021      V1022   2.082       .  T
C1023      C1154   1.480       .  S
C1024      C1065   1.503       .  S
C1025      C1056   1.509       .  S
C1026      C1139   1.509       .  S
C1027      C1028   1.495       .  S
C1027      C1033   1.518       .  S
C1027      C1031   1.544       .  S
C1027      C1297   1.533       .  S
C1028      H1035   1.091       .  S
C1028      C1029   1.347       .  D
C1029      C1120   1.495       .  S
C1029      C1030   1.567       .  S
C1030      C1034   1.584       .  S
C1030      C1032   1.578       .  S
C1030      H1036   1.104       .  S
C1031      H1037   1.079       .  S
C1031      C1032   1.383       .  D
C1032      C1133   1.493       .  S
C1033      H1038   1.087       .  S
C1033      C1034   1.353       .  D
C1034      C1095   1.531       .  S
C1039      C1040   1.523       .  S
C1039      C1045   1.535       .  S
C1039      C1043   1.515       .  S
C1039      C1264   1.542       .  S
C1040      H1047   1.085       .  S
C1040      C1041   1.368       .  D
C1041      C1136   1.499       .  S
C1041      C1042   1.576       .  S
C1042      C1046   1.586       .  S
C1042      C1044   1.569       .  S
C1042      H1048   1.101       .  S
C1043      H1049   1.082       .  S
C1043      C1044   1.361       .  D
C1044      C1121   1.506       .  S
C1045      H1050   1.084       .  S
C1045      C1046   1.363       .  D
C1046      C1096   1.537       .  S
C1051      C1052   1.534       .  S
C1051      C1057   1.533       .  S
C1051      C1055   1.526       .  S
C1051      C1244   1.550       .  S
C1052      H1059   1.082       .  S
C1052      C1053   1.378       .  D
C1053      C1232   1.506       .  S
C1053      C1054   1.580       .  S
C1054      C1058   1.580       .  S
C1054      C1056   1.566       .  S
C1054      H1060   1.110       .  S
C1055      H1061   1.085       .  S
C1055      C1056   1.361       .  D
C1057      H1062   1.080       .  S
C1057      C1058   1.345       .  D
C1058      C1097   1.523       .  S
C1063      C1064   1.527       .  S
C1063      C1069   1.532       .  S
C1063      C1067   1.505       .  S
C1063      C1277   1.523       .  S
C1064      H1071   1.086       .  S
C1064      C1065   1.362       .  D
C1065      C1066   1.567       .  S
C1066      C1070   1.575       .  S
C1066      C1068   1.574       .  S
C1066      H1072   1.110       .  S
C1067      H1073   1.083       .  S
C1067      C1068   1.358       .  D
C1068      C1229   1.473       .  S
C1069      H1074   1.082       .  S
C1069      C1070   1.349       .  D
C1070      C1098   1.513       .  S
N1075      H1107   1.043       .  S
N1075      C1079   1.357       .  A
N1076      C1084   1.365       .  A
N1077      H1108   1.040       .  S
N1077      C1081   1.354   1_554  A
N1078      C1086   1.369       .  A
C1079      C1087   1.381       .  A
C1079      C1095   1.414       .  A
C1080      C1096   1.419       .  A
C1080      C1088   1.385       .  A
C1081      C1089   1.380       .  A
C1081      C1098   1.401       .  A
C1082      C1097   1.403       .  A
C1082      C1090   1.381       .  A
C1083      C1095   1.446       .  A
C1083      C1091   1.390       .  A
C1084      C1098   1.432       .  A
C1084      C1092   1.385       .  A
C1085      C1093   1.389       .  A
C1085      C1096   1.450       .  A
C1086      C1094   1.384       .  A
C1086      C1097   1.438       .  A
C1087      H1099   1.076       .  S
C1088      H1100   1.073       .  S
C1089      H1101   1.077       .  S
C1090      H1102   1.075       .  S
C1091      H1103   1.082       .  S
C1092      H1104   1.083       .  S
C1093      H1105   1.082       .  S
C1094      H1106   1.082       .  S
O1109      C1119   1.261       .  A
O1110      V1117   1.860       .  S
O1110      C1120   1.265       .  A
O1111      C1121   1.261       .  A
O1112      V1117   1.898       .  S
O1112      C1122   1.258       .  A
O1113      V1118   1.942       .  S
O1113      C1122   1.278       .  A
O1114      C1121   1.273       .  A
O1115      V1118   1.941       .  S
O1115      C1120   1.266       .  A
O1116      C1119   1.270       .  A
V1117      V1118   2.082       .  T
C1119      C1166   1.481       .  S
C1122      C1175   1.495       .  S
O1123      V1131   1.900       .  S
O1123      C1133   1.260       .  A
O1124      V1131   1.869       .  S
O1124      C1134   1.264       .  A
O1125      V1131   1.873       .  S
O1125      C1135   1.267       .  A
O1126      V1131   1.910       .  S
O1126      C1136   1.262       .  A
O1127      V1132   1.937       .  S
O1127      C1136   1.275       .  A
O1128      V1132   1.953       .  S
O1128      C1135   1.271       .  A
O1129      V1132   1.947       .  S
O1129      C1134   1.270       .  A
O1130      V1132   1.937       .  S
O1130      C1133   1.275       .  A
V1131      V1132   2.077       .  T
C1134      C1151   1.501       .  S
C1135      C1142   1.515       .  S
C1137      C1138   1.542       .  S
C1137      C1143   1.518       .  S
C1137      C1141   1.526       .  S
C1137      C1287   1.560       .  S
C1138      H1145   1.083       .  S
C1138      C1139   1.384       .  D
C1139      C1140   1.574       .  S
C1140      C1144   1.577       .  S
C1140      C1142   1.568       .  S
C1140      H1146   1.110       .  S
C1141      H1147   1.080       .  S
C1141      C1142   1.358       .  D
C1143      H1148   1.084       .  S
C1143      C1144   1.346       .  D
C1144      C1206   1.508       .  S
C1149      C1150   1.522       .  S
C1149      C1155   1.536       .  S
C1149      C1153   1.510       .  S
C1149      C1237   1.524       .  S
C1150      H1157   1.080       .  S
C1150      C1151   1.357       .  D
C1151      C1152   1.565       .  S
C1152      C1156   1.587       .  S
C1152      C1154   1.578       .  S
C1152      H1158   1.110       .  S
C1153      H1159   1.085       .  S
C1153      C1154   1.360       .  D
C1155      H1160   1.087       .  S
C1155      C1156   1.356       .  D
C1156      C1205   1.527       .  S
C1161      C1162   1.496       .  S
C1161      C1167   1.512       .  S
C1161      C1165   1.543       .  S
C1161      C1254   1.528       .  S
C1162      H1169   1.091       .  S
C1162      C1163   1.348       .  D
C1163      C1230   1.503       .  S
C1163      C1164   1.570       .  S
C1164      C1168   1.580       .  S
C1164      C1166   1.570       .  S
C1164      H1170   1.106       .  S
C1165      H1171   1.079       .  S
C1165      C1166   1.382       .  D
C1167      H1172   1.088       .  S
C1167      C1168   1.350       .  D
C1168      C1208   1.522       .  S
C1173      C1174   1.520       .  S
C1173      C1179   1.536       .  S
C1173      C1177   1.518       .  S
C1173      C1307   1.535       .  S
C1174      H1181   1.085       .  S
C1174      C1175   1.362       .  D
C1175      C1176   1.571       .  S
C1176      C1180   1.593       .  S
C1176      C1178   1.558       .  S
C1176      H1182   1.103       .  S
C1177      H1183   1.080       .  S
C1177      C1178   1.362       .  D
C1178      C1231   1.493       .  S
C1179      H1184   1.085       .  S
C1179      C1180   1.367       .  D
C1180      C1207   1.553       .  S
N1185      H1217   1.044       .  S
N1185      C1190   1.354       .  A
N1185      C1189   1.358       .  A
N1186      C2505   1.369       .  A
N1186      C1194   1.362       .  A
N1187      H1218   1.038       .  S
N1187      C1192   1.366       .  A
N1187      C1191   1.357       .  A
N1188      C2507   1.363       .  A
N1188      C1196   1.367       .  A
C1189      C1197   1.376       .  A
C1189      C1205   1.398       .  A
C1190      C1206   1.411       .  A
C1190      C1198   1.386       .  A
C1191      C1199   1.379       .  A
C1191      C1208   1.421       .  A
C1192      C1207   1.435       .  A
C1192      C1200   1.385       .  A
C1193      N2498   1.369   1_455  A
C1193      C1205   1.433       .  A
C1193      C1201   1.382       .  A
C1194      C1208   1.450       .  A
C1194      C1202   1.393       .  A
C1195      N2500   1.363       .  A
C1195      C1203   1.387       .  A
C1195      C1206   1.437       .  A
C1196      C1204   1.389       .  A
C1196      C1207   1.452       .  A
C1197      C1198   1.352       .  A
C1197      H1209   1.078       .  S
C1198      H1210   1.073       .  S
C1199      C1200   1.364       .  A
C1199      H1211   1.073       .  S
C1200      H1212   1.065       .  S
C1201      C2514   1.379   1_455  A
C1201      H1213   1.082       .  S
C1202      C2513   1.379       .  A
C1202      H1214   1.083       .  S
C1203      C2516   1.379   1_455  A
C1203      H1215   1.083       .  S
C1204      C2515   1.379       .  A
C1204      H1216   1.081       .  S
O1219      V1227   1.894       .  S
O1219      C1229   1.260       .  A
O1220      V1227   1.856       .  S
O1220      C1230   1.265       .  A
O1221      V1227   1.856       .  S
O1221      C1231   1.260       .  A
O1222      V1227   1.903       .  S
O1222      C1232   1.260       .  A
O1223      V1228   1.950       .  S
O1223      C1232   1.279       .  A
O1224      V1228   1.945       .  S
O1224      C1231   1.270       .  A
O1225      V1228   1.947       .  S
O1225      C1230   1.268       .  A
O1226      V1228   1.923       .  S
O1226      C1229   1.271       .  A
V1227      V1228   2.082       .  T
C1233      C1234   1.425       .  A
C1233      C1238   1.403       .  A
C1233     Br2552   1.932   1_455  S
C1234      C1235   1.405       .  A
C1235      C1236   1.390       .  A
C1235     Br1242   1.925       .  S
C1236      C1237   1.402       .  A
C1236     Br1241   1.928       .  S
C1237      C1238   1.405       .  A
C1238     Br1239   1.926       .  S
Br1240     C2545   1.932       .  S
C1243      C1244   1.418       .  A
C1243      C1248   1.415       .  A
C1243     Br1250   1.925       .  S
C1244      C1245   1.410       .  A
C1245      C1246   1.396       .  A
C1245     Br1252   1.931       .  S
C1246      C1247   1.396       .  A
C1247      C1248   1.416       .  A
C1248     Br1249   1.927       .  S
C1253      C1254   1.408       .  A
C1253      C1258   1.404       .  A
C1253     Br1260   1.929       .  S
C1254      C1255   1.450       .  A
C1255      C1256   1.392       .  A
C1255     Br1262   1.962       .  S
C1256      C1257   1.396       .  A
C1256     Br1261   1.947       .  S
C1257      C1258   1.424       .  A
C1258     Br1259   1.943       .  S
C1263      C1264   1.415       .  A
C1263      C1268   1.406       .  A
C1263     Br1270   1.930       .  S
C1264      C1265   1.404       .  A
C1265      C1266   1.403       .  A
C1265     Br1272   1.928       .  S
C1266      C1267   1.414       .  A
C1267      C1268   1.411       .  A
C1268     Br1269   1.927       .  S
C1273      C1274   1.396       .  A
C1273      C1278   1.387       .  A
C1274      C1275   1.416       .  A
C1275      C1276   1.407       .  A
C1275     Br1282   1.925       .  S
C1276      C1277   1.413       .  A
C1276     Br1281   1.928       .  S
C1277      C1278   1.398       .  A
C1278     Br1279   1.927       .  S
C1283      C1284   1.411       .  A
C1283      C1288   1.408       .  A
C1283     Br2602   1.921   1_455  S
C1284      C1285   1.402       .  A
C1285      C1286   1.408       .  A
C1285     Br1292   1.916       .  S
C1286      C1287   1.415       .  A
C1286     Br1291   1.931       .  S
C1287      C1288   1.422       .  A
C1288     Br1289   1.933       .  S
Br1290     C2595   1.921       .  S
C1293      C1294   1.425       .  A
C1293      C1298   1.408       .  A
C1293     Br1300   1.942       .  S
C1294      C1295   1.398       .  A
C1295      C1296   1.390       .  A
C1295     Br1302   1.946       .  S
C1296      C1297   1.445       .  A
C1296     Br1301   1.960       .  S
C1297      C1298   1.408       .  A
C1298     Br1299   1.924       .  S
C1303      C1304   1.407       .  A
C1303      C1308   1.402       .  A
C1303     Br1310   1.929       .  S
C1304      C1305   1.416       .  A
C1305      C1306   1.404       .  A
C1305     Br2624   1.929       .  S
C1306      C1307   1.406       .  A
C1306     Br1311   1.928       .  S
C1307      C1308   1.413       .  A
C1308     Br1309   1.934       .  S
Br1312     C2617   1.929   1_455  S
O1313      V1321   1.853       .  S
O1313      C1323   1.250       .  A
O1314      C1324   1.248       .  A
O1315      C1325   1.272       .  A
O1316      V1977   1.907       .  S
O1316      C1326   1.268       .  A
O1317      C1326   1.250       .  A
O1318      V1978   1.849   1_655  S
O1318      C1325   1.246       .  A
O1319      V1322   1.927   1_655  S
O1319      C1324   1.274       .  A
O1320      C1323   1.278       .  A
V1321      O1972   1.907       .  S
V1322      O1974   1.849   1_445  S
C1323      C1612   1.475       .  S
C1324      C1632   1.460       .  S
C1325      C1622   1.469       .  S
C1326      C1602   1.441       .  S
O1327      V1335   1.849       .  S
O1327      C1337   1.250       .  A
O1328      C1338   1.246       .  A
O1329      V1991   1.933   1_545  S
O1329      C1339   1.274       .  A
O1330      C1340   1.277       .  A
O1331      V1992   1.852   1_655  S
O1331      C1340   1.249       .  A
O1332      C1339   1.251       .  A
O1333      V1336   1.905   1_645  S
O1333      C1338   1.270       .  A
O1334      C1337   1.271       .  A
V1335      O1985   1.933       .  S
V1336      O1987   1.852   1_455  S
C1337      C1562   1.460       .  S
C1338      C1585   1.465       .  S
C1339      C1575   1.463       .  S
C1340      C1595   1.466       .  S
O1341      V1677   1.901   1_554  S
O1341      C1351   1.260       .  A
O1342      V1349   1.882       .  S
O1342      C1352   1.266       .  A
O1343      V1677   1.884   1_554  S
O1343      C1353   1.267       .  A
O1344      V1349   1.916       .  S
O1344      C1354   1.265       .  A
O1345      V1350   1.944       .  S
O1345      C1354   1.276       .  A
O1346      V1678   1.946   1_554  S
O1346      C1353   1.270       .  A
O1347      V1350   1.942       .  S
O1347      C1352   1.269       .  A
O1348      V1678   1.922   1_554  S
O1348      C1351   1.272       .  A
V1349      O1669   1.901       .  S
V1349      O1671   1.884       .  S
V1349      V1350   2.082       .  T
V1350      O1674   1.946       .  S
V1350      O1676   1.922       .  S
C1351      C1482   1.480       .  S
C1352      C1393   1.503       .  S
C1353      C1384   1.509       .  S
C1354      C1467   1.509       .  S
C1355      C1356   1.495       .  S
C1355      C1361   1.518       .  S
C1355      C1359   1.544       .  S
C1355      C1625   1.533       .  S
C1356      H1363   1.091       .  S
C1356      C1357   1.347       .  D
C1357      C1448   1.495       .  S
C1357      C1358   1.567       .  S
C1358      C1362   1.584       .  S
C1358      C1360   1.578       .  S
C1358      H1364   1.104       .  S
C1359      H1365   1.079       .  S
C1359      C1360   1.383       .  D
C1360      C1461   1.493       .  S
C1361      H1366   1.087       .  S
C1361      C1362   1.353       .  D
C1362      C1423   1.531       .  S
C1367      C1368   1.523       .  S
C1367      C1373   1.535       .  S
C1367      C1371   1.515       .  S
C1367      C1592   1.542       .  S
C1368      H1375   1.085       .  S
C1368      C1369   1.368       .  D
C1369      C1464   1.499       .  S
C1369      C1370   1.576       .  S
C1370      C1374   1.586       .  S
C1370      C1372   1.569       .  S
C1370      H1376   1.101       .  S
C1371      H1377   1.082       .  S
C1371      C1372   1.361       .  D
C1372      C1449   1.506       .  S
C1373      H1378   1.084       .  S
C1373      C1374   1.363       .  D
C1374      C1424   1.537       .  S
C1379      C1380   1.534       .  S
C1379      C1385   1.533       .  S
C1379      C1383   1.526       .  S
C1379      C1572   1.550       .  S
C1380      H1387   1.082       .  S
C1380      C1381   1.378       .  D
C1381      C1560   1.506       .  S
C1381      C1382   1.580       .  S
C1382      C1386   1.580       .  S
C1382      C1384   1.566       .  S
C1382      H1388   1.110       .  S
C1383      H1389   1.085       .  S
C1383      C1384   1.361       .  D
C1385      H1390   1.080       .  S
C1385      C1386   1.345       .  D
C1386      C1425   1.523       .  S
C1391      C1392   1.527       .  S
C1391      C1397   1.532       .  S
C1391      C1395   1.505       .  S
C1391      C1605   1.523       .  S
C1392      H1399   1.086       .  S
C1392      C1393   1.362       .  D
C1393      C1394   1.567       .  S
C1394      C1398   1.575       .  S
C1394      C1396   1.574       .  S
C1394      H1400   1.110       .  S
C1395      H1401   1.083       .  S
C1395      C1396   1.358       .  D
C1396      C1557   1.473       .  S
C1397      H1402   1.082       .  S
C1397      C1398   1.349       .  D
C1398      C1426   1.513       .  S
N1403      H1435   1.043       .  S
N1403      C1736   1.356       .  A
N1403      C1407   1.357       .  A
N1404      C2067   1.365   1_545  A
N1404      C1412   1.365       .  A
N1405      H1436   1.040       .  S
N1405      C1738   1.354       .  A
N1405      C1409   1.354       .  A
N1406      C2069   1.367   1_545  A
N1406      C1414   1.369       .  A
C1407      C1415   1.381       .  A
C1407      C1423   1.414       .  A
C1408      N1731   1.356   1_554  A
C1408      C1424   1.419       .  A
C1408      C1416   1.385       .  A
C1409      C1417   1.381       .  A
C1409      C1426   1.401       .  A
C1410      N1733   1.354       .  A
C1410      C1425   1.403       .  A
C1410      C1418   1.381       .  A
C1411      N2060   1.365       .  A
C1411      C1423   1.446       .  A
C1411      C1419   1.390       .  A
C1412      C1426   1.432       .  A
C1412      C1420   1.385       .  A
C1413      N2062   1.367       .  A
C1413      C1421   1.389       .  A
C1413      C1424   1.450       .  A
C1414      C1422   1.384       .  A
C1414      C1425   1.438       .  A
C1415      C1744   1.374       .  A
C1415      H1427   1.076       .  S
C1416      C1743   1.374   1_554  A
C1416      H1428   1.073       .  S
C1417      C1746   1.356       .  A
C1417      H1429   1.077       .  S
C1418      C1745   1.356   1_554  A
C1418      H1430   1.075       .  S
C1419      C2076   1.376       .  A
C1419      H1431   1.082       .  S
C1420      C2075   1.376   1_545  A
C1420      H1432   1.083       .  S
C1421      C2078   1.379       .  A
C1421      H1433   1.082       .  S
C1422      C2077   1.379   1_545  A
C1422      H1434   1.082       .  S
O1437      V1773   1.899   1_554  S
O1437      C1447   1.261       .  A
O1438      V1445   1.860       .  S
O1438      C1448   1.265       .  A
O1439      V1773   1.858   1_554  S
O1439      C1449   1.261       .  A
O1440      V1445   1.898       .  S
O1440      C1450   1.258       .  A
O1441      V1446   1.942       .  S
O1441      C1450   1.278       .  A
O1442      V1774   1.956   1_554  S
O1442      C1449   1.273       .  A
O1443      V1446   1.941       .  S
O1443      C1448   1.266       .  A
O1444      V1774   1.923   1_554  S
O1444      C1447   1.270       .  A
V1445      O1765   1.899       .  S
V1445      O1767   1.858       .  S
V1445      V1446   2.082       .  T
V1446      O1770   1.956       .  S
V1446      O1772   1.923       .  S
C1447      C1494   1.481       .  S
C1450      C1503   1.495       .  S
O1451      V1459   1.900       .  S
O1451      C1461   1.260       .  A
O1452      V1459   1.869       .  S
O1452      C1462   1.264       .  A
O1453      V1459   1.873       .  S
O1453      C1463   1.267       .  A
O1454      V1459   1.910       .  S
O1454      C1464   1.262       .  A
O1455      V1460   1.937       .  S
O1455      C1464   1.275       .  A
O1456      V1460   1.953       .  S
O1456      C1463   1.271       .  A
O1457      V1460   1.947       .  S
O1457      C1462   1.270       .  A
O1458      V1460   1.937       .  S
O1458      C1461   1.275       .  A
V1459      V1460   2.077       .  T
C1462      C1479   1.501       .  S
C1463      C1470   1.515       .  S
C1465      C1466   1.542       .  S
C1465      C1471   1.518       .  S
C1465      C1469   1.526       .  S
C1465      C1615   1.560       .  S
C1466      H1473   1.083       .  S
C1466      C1467   1.384       .  D
C1467      C1468   1.574       .  S
C1468      C1472   1.577       .  S
C1468      C1470   1.568       .  S
C1468      H1474   1.110       .  S
C1469      H1475   1.080       .  S
C1469      C1470   1.358       .  D
C1471      H1476   1.084       .  S
C1471      C1472   1.346       .  D
C1472      C1534   1.508       .  S
C1477      C1478   1.522       .  S
C1477      C1483   1.536       .  S
C1477      C1481   1.510       .  S
C1477      C1565   1.524       .  S
C1478      H1485   1.080       .  S
C1478      C1479   1.357       .  D
C1479      C1480   1.565       .  S
C1480      C1484   1.587       .  S
C1480      C1482   1.578       .  S
C1480      H1486   1.110       .  S
C1481      H1487   1.085       .  S
C1481      C1482   1.360       .  D
C1483      H1488   1.087       .  S
C1483      C1484   1.356       .  D
C1484      C1533   1.527       .  S
C1489      C1490   1.496       .  S
C1489      C1495   1.512       .  S
C1489      C1493   1.543       .  S
C1489      C1582   1.528       .  S
C1490      H1497   1.091       .  S
C1490      C1491   1.348       .  D
C1491      C1558   1.503       .  S
C1491      C1492   1.570       .  S
C1492      C1496   1.580       .  S
C1492      C1494   1.570       .  S
C1492      H1498   1.106       .  S
C1493      H1499   1.079       .  S
C1493      C1494   1.382       .  D
C1495      H1500   1.088       .  S
C1495      C1496   1.350       .  D
C1496      C1536   1.522       .  S
C1501      C1502   1.520       .  S
C1501      C1507   1.536       .  S
C1501      C1505   1.518       .  S
C1501      C1635   1.535       .  S
C1502      H1509   1.085       .  S
C1502      C1503   1.362       .  D
C1503      C1504   1.571       .  S
C1504      C1508   1.593       .  S
C1504      C1506   1.558       .  S
C1504      H1510   1.103       .  S
C1505      H1511   1.080       .  S
C1505      C1506   1.362       .  D
C1506      C1559   1.493       .  S
C1507      H1512   1.085       .  S
C1507      C1508   1.367       .  D
C1508      C1535   1.553       .  S
N1513      H1545   1.044       .  S
N1513      C1518   1.354       .  A
N1513      C1517   1.358       .  A
N1514      C1522   1.362       .  A
N1515      H1546   1.038       .  S
N1515      C1520   1.366       .  A
N1515      C1519   1.357       .  A
N1516      C1524   1.367   1_455  A
C1517      C1525   1.376       .  A
C1517      C1533   1.398       .  A
C1518      C1534   1.411       .  A
C1518      C1526   1.386       .  A
C1519      C1527   1.379       .  A
C1519      C1536   1.421       .  A
C1520      C1535   1.435       .  A
C1520      C1528   1.385       .  A
C1521      C1533   1.433       .  A
C1521      C1529   1.382       .  A
C1522      C1536   1.450       .  A
C1522      C1530   1.393       .  A
C1523      C1531   1.387       .  A
C1523      C1534   1.437       .  A
C1524      C1532   1.389       .  A
C1524      C1535   1.452       .  A
C1525      C1526   1.352       .  A
C1525      H1537   1.078       .  S
C1526      H1538   1.073       .  S
C1527      C1528   1.364       .  A
C1527      H1539   1.073       .  S
C1528      H1540   1.065       .  S
C1529      H1541   1.082       .  S
C1530      H1542   1.083       .  S
C1531      H1543   1.083       .  S
C1532      H1544   1.081       .  S
O1547      V1555   1.894       .  S
O1547      C1557   1.260       .  A
O1548      V1555   1.856       .  S
O1548      C1558   1.265       .  A
O1549      V1555   1.856       .  S
O1549      C1559   1.260       .  A
O1550      V1555   1.903       .  S
O1550      C1560   1.260       .  A
O1551      V1556   1.950       .  S
O1551      C1560   1.279       .  A
O1552      V1556   1.945       .  S
O1552      C1559   1.270       .  A
O1553      V1556   1.947       .  S
O1553      C1558   1.268       .  A
O1554      V1556   1.923       .  S
O1554      C1557   1.271       .  A
V1555      V1556   2.082       .  T
C1561      C1562   1.425       .  A
C1561      C1566   1.403       .  A
C1562      C1563   1.405       .  A
C1563      C1564   1.390       .  A
C1563     Br1570   1.925       .  S
C1564      C1565   1.402       .  A
C1564     Br1569   1.928       .  S
C1565      C1566   1.405       .  A
C1566     Br1567   1.926       .  S
C1571      C1572   1.418       .  A
C1571      C1576   1.415       .  A
C1571     Br1578   1.925       .  S
C1572      C1573   1.410       .  A
C1573      C1574   1.396       .  A
C1573     Br1580   1.931       .  S
C1574      C1575   1.396       .  A
C1574     Br2235   1.919   1_545  S
C1575      C1576   1.416       .  A
C1576     Br1577   1.927       .  S
Br1579     C2230   1.919       .  S
C1581      C1582   1.408       .  A
C1581      C1586   1.404       .  A
C1581     Br1588   1.929       .  S
C1582      C1583   1.450       .  A
C1583      C1584   1.392       .  A
C1583     Br1590   1.962       .  S
C1584      C1585   1.396       .  A
C1584     Br1589   1.947       .  S
C1585      C1586   1.424       .  A
C1586     Br1587   1.943       .  S
C1591      C1592   1.415       .  A
C1591      C1596   1.406       .  A
C1591     Br1598   1.930       .  S
C1592      C1593   1.404       .  A
C1593      C1594   1.403       .  A
C1593     Br1600   1.928       .  S
C1594      C1595   1.414       .  A
C1594     Br2255   1.920       .  S
C1595      C1596   1.411       .  A
C1596     Br1597   1.927       .  S
Br1599     C2250   1.920   1_545  S
C1601      C1602   1.396       .  A
C1601      C1606   1.387       .  A
C1601     Br2264   1.920       .  S
C1602      C1603   1.416       .  A
C1603      C1604   1.407       .  A
C1603     Br1610   1.925       .  S
C1604      C1605   1.413       .  A
C1604     Br1609   1.928       .  S
C1605      C1606   1.398       .  A
C1606     Br1607   1.927       .  S
Br1608     C2257   1.920       .  S
C1611      C1612   1.411       .  A
C1611      C1616   1.408       .  A
C1612      C1613   1.402       .  A
C1613      C1614   1.408       .  A
C1613     Br1620   1.916       .  S
C1614      C1615   1.415       .  A
C1614     Br1619   1.931       .  S
C1615      C1616   1.422       .  A
C1616     Br1617   1.933       .  S
C1621      C1622   1.425       .  A
C1621      C1626   1.408       .  A
C1621     Br1628   1.942       .  S
C1622      C1623   1.398       .  A
C1623      C1624   1.390       .  A
C1623     Br1630   1.946       .  S
C1624      C1625   1.445       .  A
C1624     Br1629   1.960       .  S
C1625      C1626   1.408       .  A
C1626     Br1627   1.924       .  S
C1631      C1632   1.407       .  A
C1631      C1636   1.402       .  A
C1631     Br1638   1.929       .  S
C1632      C1633   1.416       .  A
C1633      C1634   1.404       .  A
C1634      C1635   1.406       .  A
C1634     Br1639   1.928       .  S
C1635      C1636   1.413       .  A
C1636     Br1637   1.934       .  S
O1641      V1649   1.853       .  S
O1641      C1651   1.250       .  A
O1642      C1652   1.248       .  A
O1643      C1653   1.272       .  A
O1644      V2305   1.907       .  S
O1644      C1654   1.268       .  A
O1645      C1654   1.250       .  A
O1646      V2306   1.849   1_655  S
O1646      C1653   1.246       .  A
O1647      V1650   1.927   1_655  S
O1647      C1652   1.274       .  A
O1648      C1651   1.278       .  A
V1649      O2300   1.907       .  S
V1650      O2302   1.849   1_445  S
C1651      C1940   1.475       .  S
C1652      C1960   1.460       .  S
C1653      C1950   1.469       .  S
C1654      C1930   1.441       .  S
O1655      V1663   1.849       .  S
O1655      C1665   1.250       .  A
O1656      C1666   1.246       .  A
O1657      V2319   1.933   1_545  S
O1657      C1667   1.274       .  A
O1658      C1668   1.277       .  A
O1659      V2320   1.852   1_655  S
O1659      C1668   1.249       .  A
O1660      C1667   1.251       .  A
O1661      V1664   1.905   1_645  S
O1661      C1666   1.270       .  A
O1662      C1665   1.271       .  A
V1663      O2313   1.933       .  S
V1664      O2315   1.852   1_455  S
C1665      C1890   1.460       .  S
C1666      C1913   1.465       .  S
C1667      C1903   1.463       .  S
C1668      C1923   1.466       .  S
O1669      C1679   1.260       .  A
O1670      V1677   1.882       .  S
O1670      C1680   1.266       .  A
O1671      C1681   1.267       .  A
O1672      V1677   1.916       .  S
O1672      C1682   1.265       .  A
O1673      V1678   1.944       .  S
O1673      C1682   1.276       .  A
O1674      C1681   1.270       .  A
O1675      V1678   1.942       .  S
O1675      C1680   1.269       .  A
O1676      C1679   1.272       .  A
V1677      V1678   2.082       .  T
C1679      C1810   1.480       .  S
C1680      C1721   1.503       .  S
C1681      C1712   1.509       .  S
C1682      C1795   1.509       .  S
C1683      C1684   1.495       .  S
C1683      C1689   1.518       .  S
C1683      C1687   1.544       .  S
C1683      C1953   1.533       .  S
C1684      H1691   1.091       .  S
C1684      C1685   1.347       .  D
C1685      C1776   1.495       .  S
C1685      C1686   1.567       .  S
C1686      C1690   1.584       .  S
C1686      C1688   1.578       .  S
C1686      H1692   1.104       .  S
C1687      H1693   1.079       .  S
C1687      C1688   1.383       .  D
C1688      C1789   1.493       .  S
C1689      H1694   1.087       .  S
C1689      C1690   1.353       .  D
C1690      C1751   1.531       .  S
C1695      C1696   1.523       .  S
C1695      C1701   1.535       .  S
C1695      C1699   1.515       .  S
C1695      C1920   1.542       .  S
C1696      H1703   1.085       .  S
C1696      C1697   1.368       .  D
C1697      C1792   1.499       .  S
C1697      C1698   1.576       .  S
C1698      C1702   1.586       .  S
C1698      C1700   1.569       .  S
C1698      H1704   1.101       .  S
C1699      H1705   1.082       .  S
C1699      C1700   1.361       .  D
C1700      C1777   1.506       .  S
C1701      H1706   1.084       .  S
C1701      C1702   1.363       .  D
C1702      C1752   1.537       .  S
C1707      C1708   1.534       .  S
C1707      C1713   1.533       .  S
C1707      C1711   1.526       .  S
C1707      C1900   1.550       .  S
C1708      H1715   1.082       .  S
C1708      C1709   1.378       .  D
C1709      C1888   1.506       .  S
C1709      C1710   1.580       .  S
C1710      C1714   1.580       .  S
C1710      C1712   1.566       .  S
C1710      H1716   1.110       .  S
C1711      H1717   1.085       .  S
C1711      C1712   1.361       .  D
C1713      H1718   1.080       .  S
C1713      C1714   1.345       .  D
C1714      C1753   1.523       .  S
C1719      C1720   1.527       .  S
C1719      C1725   1.532       .  S
C1719      C1723   1.505       .  S
C1719      C1933   1.523       .  S
C1720      H1727   1.086       .  S
C1720      C1721   1.362       .  D
C1721      C1722   1.567       .  S
C1722      C1726   1.575       .  S
C1722      C1724   1.574       .  S
C1722      H1728   1.110       .  S
C1723      H1729   1.083       .  S
C1723      C1724   1.358       .  D
C1724      C1885   1.473       .  S
C1725      H1730   1.082       .  S
C1725      C1726   1.349       .  D
C1726      C1754   1.513       .  S
N1731      H1763   1.043       .  S
N1731      C1735   1.357       .  A
N1732      C2395   1.365   1_545  A
N1732      C1740   1.365       .  A
N1733      H1764   1.040       .  S
N1733      C1737   1.354   1_554  A
N1734      C2397   1.367   1_545  A
N1734      C1742   1.369       .  A
C1735      C1743   1.381       .  A
C1735      C1751   1.414       .  A
C1736      C1752   1.419       .  A
C1736      C1744   1.385       .  A
C1737      C1745   1.381       .  A
C1737      C1754   1.401       .  A
C1738      C1753   1.403       .  A
C1738      C1746   1.381       .  A
C1739      N2388   1.365       .  A
C1739      C1751   1.446       .  A
C1739      C1747   1.390       .  A
C1740      C1754   1.432       .  A
C1740      C1748   1.385       .  A
C1741      N2390   1.367       .  A
C1741      C1749   1.389       .  A
C1741      C1752   1.450       .  A
C1742      C1750   1.384       .  A
C1742      C1753   1.438       .  A
C1743      H1755   1.076       .  S
C1744      H1756   1.073       .  S
C1745      H1757   1.077       .  S
C1746      H1758   1.075       .  S
C1747      C2404   1.376       .  A
C1747      H1759   1.082       .  S
C1748      C2403   1.376   1_545  A
C1748      H1760   1.083       .  S
C1749      C2406   1.379       .  A
C1749      H1761   1.082       .  S
C1750      C2405   1.379   1_545  A
C1750      H1762   1.082       .  S
O1765      C1775   1.261       .  A
O1766      V1773   1.860       .  S
O1766      C1776   1.265       .  A
O1767      C1777   1.261       .  A
O1768      V1773   1.898       .  S
O1768      C1778   1.258       .  A
O1769      V1774   1.942       .  S
O1769      C1778   1.278       .  A
O1770      C1777   1.273       .  A
O1771      V1774   1.941       .  S
O1771      C1776   1.266       .  A
O1772      C1775   1.270       .  A
V1773      V1774   2.082       .  T
C1775      C1822   1.481       .  S
C1778      C1831   1.495       .  S
O1779      V1787   1.900       .  S
O1779      C1789   1.260       .  A
O1780      V1787   1.869       .  S
O1780      C1790   1.264       .  A
O1781      V1787   1.873       .  S
O1781      C1791   1.266       .  A
O1782      V1787   1.910       .  S
O1782      C1792   1.262       .  A
O1783      V1788   1.937       .  S
O1783      C1792   1.275       .  A
O1784      V1788   1.953       .  S
O1784      C1791   1.271       .  A
O1785      V1788   1.947       .  S
O1785      C1790   1.270       .  A
O1786      V1788   1.937       .  S
O1786      C1789   1.275       .  A
V1787      V1788   2.077       .  T
C1790      C1807   1.501       .  S
C1791      C1798   1.515       .  S
C1793      C1794   1.542       .  S
C1793      C1799   1.518       .  S
C1793      C1797   1.526       .  S
C1793      C1943   1.560       .  S
C1794      H1801   1.083       .  S
C1794      C1795   1.384       .  D
C1795      C1796   1.574       .  S
C1796      C1800   1.577       .  S
C1796      C1798   1.568       .  S
C1796      H1802   1.110       .  S
C1797      H1803   1.080       .  S
C1797      C1798   1.358       .  D
C1799      H1804   1.084       .  S
C1799      C1800   1.346       .  D
C1800      C1862   1.508       .  S
C1805      C1806   1.522       .  S
C1805      C1811   1.536       .  S
C1805      C1809   1.510       .  S
C1805      C1893   1.524       .  S
C1806      H1813   1.080       .  S
C1806      C1807   1.357       .  D
C1807      C1808   1.565       .  S
C1808      C1812   1.587       .  S
C1808      C1810   1.578       .  S
C1808      H1814   1.110       .  S
C1809      H1815   1.085       .  S
C1809      C1810   1.360       .  D
C1811      H1816   1.087       .  S
C1811      C1812   1.356       .  D
C1812      C1861   1.527       .  S
C1817      C1818   1.496       .  S
C1817      C1823   1.512       .  S
C1817      C1821   1.543       .  S
C1817      C1910   1.528       .  S
C1818      H1825   1.091       .  S
C1818      C1819   1.348       .  D
C1819      C1886   1.503       .  S
C1819      C1820   1.570       .  S
C1820      C1824   1.580       .  S
C1820      C1822   1.570       .  S
C1820      H1826   1.106       .  S
C1821      H1827   1.079       .  S
C1821      C1822   1.382       .  D
C1823      H1828   1.088       .  S
C1823      C1824   1.350       .  D
C1824      C1864   1.522       .  S
C1829      C1830   1.520       .  S
C1829      C1835   1.536       .  S
C1829      C1833   1.518       .  S
C1829      C1963   1.535       .  S
C1830      H1837   1.085       .  S
C1830      C1831   1.362       .  D
C1831      C1832   1.571       .  S
C1832      C1836   1.593       .  S
C1832      C1834   1.558       .  S
C1832      H1838   1.103       .  S
C1833      H1839   1.080       .  S
C1833      C1834   1.362       .  D
C1834      C1887   1.493       .  S
C1835      H1840   1.085       .  S
C1835      C1836   1.367       .  D
C1836      C1863   1.553       .  S
N1841      H1873   1.044       .  S
N1841      C1846   1.354       .  A
N1841      C1845   1.358       .  A
N1842      C1850   1.362       .  A
N1843      H1874   1.038       .  S
N1843      C1848   1.366       .  A
N1843      C1847   1.357       .  A
N1844      C1852   1.367   1_455  A
C1845      C1853   1.376       .  A
C1845      C1861   1.398       .  A
C1846      C1862   1.411       .  A
C1846      C1854   1.386       .  A
C1847      C1855   1.379       .  A
C1847      C1864   1.421       .  A
C1848      C1863   1.435       .  A
C1848      C1856   1.385       .  A
C1849      C1861   1.433       .  A
C1849      C1857   1.382       .  A
C1850      C1864   1.450       .  A
C1850      C1858   1.393       .  A
C1851      C1859   1.387       .  A
C1851      C1862   1.437       .  A
C1852      C1860   1.389       .  A
C1852      C1863   1.452       .  A
C1853      C1854   1.352       .  A
C1853      H1865   1.078       .  S
C1854      H1866   1.073       .  S
C1855      C1856   1.364       .  A
C1855      H1867   1.073       .  S
C1856      H1868   1.065       .  S
C1857      H1869   1.082       .  S
C1858      H1870   1.083       .  S
C1859      H1871   1.083       .  S
C1860      H1872   1.081       .  S
O1875      V1883   1.894       .  S
O1875      C1885   1.260       .  A
O1876      V1883   1.856       .  S
O1876      C1886   1.265       .  A
O1877      V1883   1.856       .  S
O1877      C1887   1.260       .  A
O1878      V1883   1.903       .  S
O1878      C1888   1.260       .  A
O1879      V1884   1.950       .  S
O1879      C1888   1.279       .  A
O1880      V1884   1.945       .  S
O1880      C1887   1.270       .  A
O1881      V1884   1.947       .  S
O1881      C1886   1.268       .  A
O1882      V1884   1.923       .  S
O1882      C1885   1.271       .  A
V1883      V1884   2.082       .  T
C1889      C1890   1.425       .  A
C1889      C1894   1.403       .  A
C1890      C1891   1.405       .  A
C1891      C1892   1.390       .  A
C1891     Br1898   1.925       .  S
C1892      C1893   1.402       .  A
C1892     Br1897   1.928       .  S
C1893      C1894   1.405       .  A
C1894     Br1895   1.926       .  S
C1899      C1900   1.418       .  A
C1899      C1904   1.415       .  A
C1899     Br1906   1.925       .  S
C1900      C1901   1.410       .  A
C1901      C1902   1.396       .  A
C1901     Br1908   1.931       .  S
C1902      C1903   1.396       .  A
C1902     Br2563   1.919   1_545  S
C1903      C1904   1.416       .  A
C1904     Br1905   1.927       .  S
Br1907     C2558   1.919       .  S
C1909      C1910   1.408       .  A
C1909      C1914   1.404       .  A
C1909     Br1916   1.929       .  S
C1910      C1911   1.450       .  A
C1911      C1912   1.392       .  A
C1911     Br1918   1.962       .  S
C1912      C1913   1.396       .  A
C1912     Br1917   1.947       .  S
C1913      C1914   1.424       .  A
C1914     Br1915   1.943       .  S
C1919      C1920   1.415       .  A
C1919      C1924   1.406       .  A
C1919     Br1926   1.930       .  S
C1920      C1921   1.404       .  A
C1921      C1922   1.403       .  A
C1921     Br1928   1.928       .  S
C1922      C1923   1.414       .  A
C1922     Br2583   1.920       .  S
C1923      C1924   1.411       .  A
C1924     Br1925   1.927       .  S
Br1927     C2578   1.920   1_545  S
C1929      C1930   1.396       .  A
C1929      C1934   1.387       .  A
C1929     Br2592   1.920       .  S
C1930      C1931   1.416       .  A
C1931      C1932   1.407       .  A
C1931     Br1938   1.925       .  S
C1932      C1933   1.413       .  A
C1932     Br1937   1.928       .  S
C1933      C1934   1.398       .  A
C1934     Br1935   1.927       .  S
Br1936     C2585   1.920       .  S
C1939      C1940   1.411       .  A
C1939      C1944   1.408       .  A
C1940      C1941   1.402       .  A
C1941      C1942   1.408       .  A
C1941     Br1948   1.916       .  S
C1942      C1943   1.415       .  A
C1942     Br1947   1.930       .  S
C1943      C1944   1.422       .  A
C1944     Br1945   1.933       .  S
C1949      C1950   1.425       .  A
C1949      C1954   1.408       .  A
C1949     Br1956   1.942       .  S
C1950      C1951   1.398       .  A
C1951      C1952   1.390       .  A
C1951     Br1958   1.946       .  S
C1952      C1953   1.445       .  A
C1952     Br1957   1.960       .  S
C1953      C1954   1.408       .  A
C1954     Br1955   1.924       .  S
C1959      C1960   1.407       .  A
C1959      C1964   1.402       .  A
C1959     Br1966   1.929       .  S
C1960      C1961   1.416       .  A
C1961      C1962   1.404       .  A
C1962      C1963   1.406       .  A
C1962     Br1967   1.928       .  S
C1963      C1964   1.413       .  A
C1964     Br1965   1.934       .  S
O1969      V1977   1.853   1_565  S
O1969      C1979   1.250       .  A
O1970      C1980   1.248       .  A
O1971      C1981   1.272       .  A
O1972      C1982   1.268       .  A
O1973      C1982   1.250       .  A
O1974      C1981   1.246       .  A
O1975      V1978   1.927   1_655  S
O1975      C1980   1.274       .  A
O1976      C1979   1.278       .  A
C1979      C2268   1.475       .  S
C1980      C2288   1.460       .  S
C1981      C2278   1.469       .  S
C1982      C2258   1.441       .  S
O1983      V1991   1.849       .  S
O1983      C1993   1.250       .  A
O1984      C1994   1.246       .  A
O1985      C1995   1.274       .  A
O1986      C1996   1.277       .  A
O1987      C1996   1.249       .  A
O1988      C1995   1.251       .  A
O1989      V1992   1.905   1_655  S
O1989      C1994   1.270       .  A
O1990      C1993   1.271       .  A
C1993      C2218   1.460       .  S
C1994      C2241   1.465       .  S
C1995      C2231   1.463       .  S
C1996      C2251   1.466       .  S
O1997      V2333   1.901   1_554  S
O1997      C2007   1.260       .  A
O1998      V2005   1.882       .  S
O1998      C2008   1.266       .  A
O1999      V2333   1.884   1_554  S
O1999      C2009   1.267       .  A
O2000      V2005   1.916       .  S
O2000      C2010   1.265       .  A
O2001      V2006   1.944       .  S
O2001      C2010   1.276       .  A
O2002      V2334   1.946   1_554  S
O2002      C2009   1.270       .  A
O2003      V2006   1.942       .  S
O2003      C2008   1.269       .  A
O2004      V2334   1.922   1_554  S
O2004      C2007   1.272       .  A
V2005      O2325   1.901       .  S
V2005      O2327   1.884       .  S
V2005      V2006   2.082       .  T
V2006      O2330   1.946       .  S
V2006      O2332   1.922       .  S
C2007      C2138   1.480       .  S
C2008      C2049   1.503       .  S
C2009      C2040   1.509       .  S
C2010      C2123   1.509       .  S
C2011      C2012   1.495       .  S
C2011      C2017   1.518       .  S
C2011      C2015   1.544       .  S
C2011      C2281   1.533       .  S
C2012      H2019   1.091       .  S
C2012      C2013   1.347       .  D
C2013      C2104   1.495       .  S
C2013      C2014   1.567       .  S
C2014      C2018   1.584       .  S
C2014      C2016   1.578       .  S
C2014      H2020   1.104       .  S
C2015      H2021   1.079       .  S
C2015      C2016   1.383       .  D
C2016      C2117   1.493       .  S
C2017      H2022   1.087       .  S
C2017      C2018   1.353       .  D
C2018      C2079   1.531       .  S
C2023      C2024   1.523       .  S
C2023      C2029   1.535       .  S
C2023      C2027   1.515       .  S
C2023      C2248   1.542       .  S
C2024      H2031   1.085       .  S
C2024      C2025   1.368       .  D
C2025      C2120   1.499       .  S
C2025      C2026   1.576       .  S
C2026      C2030   1.586       .  S
C2026      C2028   1.569       .  S
C2026      H2032   1.101       .  S
C2027      H2033   1.082       .  S
C2027      C2028   1.361       .  D
C2028      C2105   1.506       .  S
C2029      H2034   1.084       .  S
C2029      C2030   1.363       .  D
C2030      C2080   1.537       .  S
C2035      C2036   1.534       .  S
C2035      C2041   1.533       .  S
C2035      C2039   1.526       .  S
C2035      C2228   1.550       .  S
C2036      H2043   1.082       .  S
C2036      C2037   1.378       .  D
C2037      C2216   1.506       .  S
C2037      C2038   1.580       .  S
C2038      C2042   1.580       .  S
C2038      C2040   1.566       .  S
C2038      H2044   1.110       .  S
C2039      H2045   1.085       .  S
C2039      C2040   1.361       .  D
C2041      H2046   1.080       .  S
C2041      C2042   1.345       .  D
C2042      C2081   1.523       .  S
C2047      C2048   1.527       .  S
C2047      C2053   1.532       .  S
C2047      C2051   1.505       .  S
C2047      C2261   1.523       .  S
C2048      H2055   1.086       .  S
C2048      C2049   1.362       .  D
C2049      C2050   1.567       .  S
C2050      C2054   1.575       .  S
C2050      C2052   1.574       .  S
C2050      H2056   1.110       .  S
C2051      H2057   1.083       .  S
C2051      C2052   1.358       .  D
C2052      C2213   1.473       .  S
C2053      H2058   1.082       .  S
C2053      C2054   1.349       .  D
C2054      C2082   1.513       .  S
N2059      H2091   1.043       .  S
N2059      C2392   1.356       .  A
N2059      C2063   1.357       .  A
N2060      C2068   1.365       .  A
N2061      H2092   1.040       .  S
N2061      C2394   1.354       .  A
N2061      C2065   1.354       .  A
N2062      C2070   1.369       .  A
C2063      C2071   1.381       .  A
C2063      C2079   1.414       .  A
C2064      N2387   1.356   1_554  A
C2064      C2080   1.419       .  A
C2064      C2072   1.385       .  A
C2065      C2073   1.381       .  A
C2065      C2082   1.401       .  A
C2066      N2389   1.354       .  A
C2066      C2081   1.403       .  A
C2066      C2074   1.381       .  A
C2067      C2079   1.446       .  A
C2067      C2075   1.390       .  A
C2068      C2082   1.432       .  A
C2068      C2076   1.385       .  A
C2069      C2077   1.389       .  A
C2069      C2080   1.450       .  A
C2070      C2078   1.384       .  A
C2070      C2081   1.438       .  A
C2071      C2400   1.374       .  A
C2071      H2083   1.076       .  S
C2072      C2399   1.374   1_554  A
C2072      H2084   1.073       .  S
C2073      C2402   1.356       .  A
C2073      H2085   1.077       .  S
C2074      C2401   1.356   1_554  A
C2074      H2086   1.075       .  S
C2075      H2087   1.082       .  S
C2076      H2088   1.083       .  S
C2077      H2089   1.082       .  S
C2078      H2090   1.082       .  S
O2093      V2429   1.899   1_554  S
O2093      C2103   1.261       .  A
O2094      V2101   1.860       .  S
O2094      C2104   1.265       .  A
O2095      V2429   1.858   1_554  S
O2095      C2105   1.261       .  A
O2096      V2101   1.898       .  S
O2096      C2106   1.258       .  A
O2097      V2102   1.942       .  S
O2097      C2106   1.278       .  A
O2098      V2430   1.956   1_554  S
O2098      C2105   1.273       .  A
O2099      V2102   1.941       .  S
O2099      C2104   1.266       .  A
O2100      V2430   1.923   1_554  S
O2100      C2103   1.270       .  A
V2101      O2421   1.899       .  S
V2101      O2423   1.858       .  S
V2101      V2102   2.082       .  T
V2102      O2426   1.956       .  S
V2102      O2428   1.923       .  S
C2103      C2150   1.481       .  S
C2106      C2159   1.495       .  S
O2107      V2115   1.900       .  S
O2107      C2117   1.260       .  A
O2108      V2115   1.869       .  S
O2108      C2118   1.264       .  A
O2109      V2115   1.873       .  S
O2109      C2119   1.267       .  A
O2110      V2115   1.910       .  S
O2110      C2120   1.262       .  A
O2111      V2116   1.937       .  S
O2111      C2120   1.275       .  A
O2112      V2116   1.953       .  S
O2112      C2119   1.271       .  A
O2113      V2116   1.947       .  S
O2113      C2118   1.270       .  A
O2114      V2116   1.937       .  S
O2114      C2117   1.275       .  A
V2115      V2116   2.077       .  T
C2118      C2135   1.501       .  S
C2119      C2126   1.515       .  S
C2121      C2122   1.542       .  S
C2121      C2127   1.518       .  S
C2121      C2125   1.526       .  S
C2121      C2271   1.560       .  S
C2122      H2129   1.083       .  S
C2122      C2123   1.384       .  D
C2123      C2124   1.574       .  S
C2124      C2128   1.577       .  S
C2124      C2126   1.568       .  S
C2124      H2130   1.110       .  S
C2125      H2131   1.080       .  S
C2125      C2126   1.358       .  D
C2127      H2132   1.084       .  S
C2127      C2128   1.346       .  D
C2128      C2190   1.508       .  S
C2133      C2134   1.522       .  S
C2133      C2139   1.536       .  S
C2133      C2137   1.510       .  S
C2133      C2221   1.524       .  S
C2134      H2141   1.080       .  S
C2134      C2135   1.357       .  D
C2135      C2136   1.565       .  S
C2136      C2140   1.587       .  S
C2136      C2138   1.578       .  S
C2136      H2142   1.110       .  S
C2137      H2143   1.085       .  S
C2137      C2138   1.360       .  D
C2139      H2144   1.087       .  S
C2139      C2140   1.356       .  D
C2140      C2189   1.527       .  S
C2145      C2146   1.496       .  S
C2145      C2151   1.512       .  S
C2145      C2149   1.543       .  S
C2145      C2238   1.528       .  S
C2146      H2153   1.091       .  S
C2146      C2147   1.348       .  D
C2147      C2214   1.503       .  S
C2147      C2148   1.570       .  S
C2148      C2152   1.580       .  S
C2148      C2150   1.570       .  S
C2148      H2154   1.106       .  S
C2149      H2155   1.079       .  S
C2149      C2150   1.382       .  D
C2151      H2156   1.088       .  S
C2151      C2152   1.350       .  D
C2152      C2192   1.522       .  S
C2157      C2158   1.520       .  S
C2157      C2163   1.536       .  S
C2157      C2161   1.518       .  S
C2157      C2291   1.535       .  S
C2158      H2165   1.085       .  S
C2158      C2159   1.362       .  D
C2159      C2160   1.571       .  S
C2160      C2164   1.593       .  S
C2160      C2162   1.558       .  S
C2160      H2166   1.103       .  S
C2161      H2167   1.080       .  S
C2161      C2162   1.362       .  D
C2162      C2215   1.493       .  S
C2163      H2168   1.085       .  S
C2163      C2164   1.367       .  D
C2164      C2191   1.553       .  S
N2169      H2201   1.044       .  S
N2169      C2174   1.354       .  A
N2169      C2173   1.358       .  A
N2170      C2178   1.362       .  A
N2171      H2202   1.038       .  S
N2171      C2176   1.366       .  A
N2171      C2175   1.357       .  A
N2172      C2180   1.367   1_455  A
C2173      C2181   1.376       .  A
C2173      C2189   1.398       .  A
C2174      C2190   1.411       .  A
C2174      C2182   1.386       .  A
C2175      C2183   1.379       .  A
C2175      C2192   1.421       .  A
C2176      C2191   1.435       .  A
C2176      C2184   1.385       .  A
C2177      C2189   1.433       .  A
C2177      C2185   1.382       .  A
C2178      C2192   1.450       .  A
C2178      C2186   1.393       .  A
C2179      C2187   1.387       .  A
C2179      C2190   1.437       .  A
C2180      C2188   1.389       .  A
C2180      C2191   1.452       .  A
C2181      C2182   1.352       .  A
C2181      H2193   1.078       .  S
C2182      H2194   1.073       .  S
C2183      C2184   1.364       .  A
C2183      H2195   1.073       .  S
C2184      H2196   1.065       .  S
C2185      H2197   1.082       .  S
C2186      H2198   1.083       .  S
C2187      H2199   1.083       .  S
C2188      H2200   1.081       .  S
O2203      V2211   1.894       .  S
O2203      C2213   1.260       .  A
O2204      V2211   1.856       .  S
O2204      C2214   1.265       .  A
O2205      V2211   1.856       .  S
O2205      C2215   1.260       .  A
O2206      V2211   1.903       .  S
O2206      C2216   1.260       .  A
O2207      V2212   1.950       .  S
O2207      C2216   1.279       .  A
O2208      V2212   1.945       .  S
O2208      C2215   1.270       .  A
O2209      V2212   1.947       .  S
O2209      C2214   1.268       .  A
O2210      V2212   1.923       .  S
O2210      C2213   1.271       .  A
V2211      V2212   2.082       .  T
C2217      C2218   1.425       .  A
C2217      C2222   1.403       .  A
C2218      C2219   1.405       .  A
C2219      C2220   1.390       .  A
C2219     Br2226   1.925       .  S
C2220      C2221   1.402       .  A
C2220     Br2225   1.928       .  S
C2221      C2222   1.405       .  A
C2222     Br2223   1.926       .  S
C2227      C2228   1.418       .  A
C2227      C2232   1.415       .  A
C2227     Br2234   1.925       .  S
C2228      C2229   1.410       .  A
C2229      C2230   1.396       .  A
C2229     Br2236   1.931       .  S
C2230      C2231   1.396       .  A
C2231      C2232   1.416       .  A
C2232     Br2233   1.927       .  S
C2237      C2238   1.408       .  A
C2237      C2242   1.404       .  A
C2237     Br2244   1.929       .  S
C2238      C2239   1.450       .  A
C2239      C2240   1.392       .  A
C2239     Br2246   1.962       .  S
C2240      C2241   1.396       .  A
C2240     Br2245   1.947       .  S
C2241      C2242   1.424       .  A
C2242     Br2243   1.943       .  S
C2247      C2248   1.415       .  A
C2247      C2252   1.406       .  A
C2247     Br2254   1.930       .  S
C2248      C2249   1.404       .  A
C2249      C2250   1.403       .  A
C2249     Br2256   1.928       .  S
C2250      C2251   1.414       .  A
C2251      C2252   1.411       .  A
C2252     Br2253   1.927       .  S
C2257      C2258   1.396       .  A
C2257      C2262   1.387       .  A
C2258      C2259   1.416       .  A
C2259      C2260   1.407       .  A
C2259     Br2266   1.925       .  S
C2260      C2261   1.413       .  A
C2260     Br2265   1.928       .  S
C2261      C2262   1.398       .  A
C2262     Br2263   1.927       .  S
C2267      C2268   1.411       .  A
C2267      C2272   1.408       .  A
C2268      C2269   1.402       .  A
C2269      C2270   1.408       .  A
C2269     Br2276   1.916       .  S
C2270      C2271   1.415       .  A
C2270     Br2275   1.931       .  S
C2271      C2272   1.422       .  A
C2272     Br2273   1.933       .  S
C2277      C2278   1.425       .  A
C2277      C2282   1.408       .  A
C2277     Br2284   1.942       .  S
C2278      C2279   1.398       .  A
C2279      C2280   1.390       .  A
C2279     Br2286   1.946       .  S
C2280      C2281   1.445       .  A
C2280     Br2285   1.960       .  S
C2281      C2282   1.408       .  A
C2282     Br2283   1.924       .  S
C2287      C2288   1.407       .  A
C2287      C2292   1.402       .  A
C2287     Br2294   1.929       .  S
C2288      C2289   1.416       .  A
C2289      C2290   1.404       .  A
C2290      C2291   1.406       .  A
C2290     Br2295   1.928       .  S
C2291      C2292   1.413       .  A
C2292     Br2293   1.934       .  S
O2297      V2305   1.853   1_565  S
O2297      C2307   1.250       .  A
O2298      C2308   1.248       .  A
O2299      C2309   1.272       .  A
O2300      C2310   1.268       .  A
O2301      C2310   1.250       .  A
O2302      C2309   1.246       .  A
O2303      V2306   1.927   1_655  S
O2303      C2308   1.274       .  A
O2304      C2307   1.278       .  A
C2307      C2596   1.475       .  S
C2308      C2616   1.460       .  S
C2309      C2606   1.469       .  S
C2310      C2586   1.441       .  S
O2311      V2319   1.849       .  S
O2311      C2321   1.250       .  A
O2312      C2322   1.246       .  A
O2313      C2323   1.274       .  A
O2314      C2324   1.277       .  A
O2315      C2324   1.249       .  A
O2316      C2323   1.251       .  A
O2317      V2320   1.905   1_655  S
O2317      C2322   1.270       .  A
O2318      C2321   1.271       .  A
C2321      C2546   1.460       .  S
C2322      C2569   1.465       .  S
C2323      C2559   1.463       .  S
C2324      C2579   1.466       .  S
O2325      C2335   1.260       .  A
O2326      V2333   1.882       .  S
O2326      C2336   1.266       .  A
O2327      C2337   1.267       .  A
O2328      V2333   1.916       .  S
O2328      C2338   1.265       .  A
O2329      V2334   1.944       .  S
O2329      C2338   1.276       .  A
O2330      C2337   1.270       .  A
O2331      V2334   1.942       .  S
O2331      C2336   1.269       .  A
O2332      C2335   1.272       .  A
V2333      V2334   2.082       .  T
C2335      C2466   1.480       .  S
C2336      C2377   1.503       .  S
C2337      C2368   1.509       .  S
C2338      C2451   1.509       .  S
C2339      C2340   1.495       .  S
C2339      C2345   1.518       .  S
C2339      C2343   1.544       .  S
C2339      C2609   1.533       .  S
C2340      H2347   1.091       .  S
C2340      C2341   1.347       .  D
C2341      C2432   1.495       .  S
C2341      C2342   1.567       .  S
C2342      C2346   1.584       .  S
C2342      C2344   1.578       .  S
C2342      H2348   1.104       .  S
C2343      H2349   1.079       .  S
C2343      C2344   1.383       .  D
C2344      C2445   1.493       .  S
C2345      H2350   1.087       .  S
C2345      C2346   1.353       .  D
C2346      C2407   1.531       .  S
C2351      C2352   1.523       .  S
C2351      C2357   1.535       .  S
C2351      C2355   1.515       .  S
C2351      C2576   1.542       .  S
C2352      H2359   1.085       .  S
C2352      C2353   1.368       .  D
C2353      C2448   1.499       .  S
C2353      C2354   1.576       .  S
C2354      C2358   1.586       .  S
C2354      C2356   1.569       .  S
C2354      H2360   1.101       .  S
C2355      H2361   1.082       .  S
C2355      C2356   1.361       .  D
C2356      C2433   1.506       .  S
C2357      H2362   1.084       .  S
C2357      C2358   1.363       .  D
C2358      C2408   1.537       .  S
C2363      C2364   1.534       .  S
C2363      C2369   1.533       .  S
C2363      C2367   1.526       .  S
C2363      C2556   1.550       .  S
C2364      H2371   1.082       .  S
C2364      C2365   1.378       .  D
C2365      C2544   1.506       .  S
C2365      C2366   1.580       .  S
C2366      C2370   1.580       .  S
C2366      C2368   1.566       .  S
C2366      H2372   1.110       .  S
C2367      H2373   1.085       .  S
C2367      C2368   1.361       .  D
C2369      H2374   1.080       .  S
C2369      C2370   1.345       .  D
C2370      C2409   1.523       .  S
C2375      C2376   1.527       .  S
C2375      C2381   1.532       .  S
C2375      C2379   1.505       .  S
C2375      C2589   1.523       .  S
C2376      H2383   1.086       .  S
C2376      C2377   1.362       .  D
C2377      C2378   1.567       .  S
C2378      C2382   1.575       .  S
C2378      C2380   1.574       .  S
C2378      H2384   1.110       .  S
C2379      H2385   1.083       .  S
C2379      C2380   1.358       .  D
C2380      C2541   1.473       .  S
C2381      H2386   1.082       .  S
C2381      C2382   1.349       .  D
C2382      C2410   1.513       .  S
N2387      H2419   1.043       .  S
N2387      C2391   1.357       .  A
N2388      C2396   1.365       .  A
N2389      H2420   1.040       .  S
N2389      C2393   1.354   1_554  A
N2390      C2398   1.369       .  A
C2391      C2399   1.381       .  A
C2391      C2407   1.414       .  A
C2392      C2408   1.419       .  A
C2392      C2400   1.385       .  A
C2393      C2401   1.381       .  A
C2393      C2410   1.401       .  A
C2394      C2409   1.403       .  A
C2394      C2402   1.381       .  A
C2395      C2407   1.446       .  A
C2395      C2403   1.390       .  A
C2396      C2410   1.432       .  A
C2396      C2404   1.385       .  A
C2397      C2405   1.389       .  A
C2397      C2408   1.450       .  A
C2398      C2406   1.384       .  A
C2398      C2409   1.438       .  A
C2399      H2411   1.076       .  S
C2400      H2412   1.073       .  S
C2401      H2413   1.077       .  S
C2402      H2414   1.075       .  S
C2403      H2415   1.082       .  S
C2404      H2416   1.083       .  S
C2405      H2417   1.082       .  S
C2406      H2418   1.082       .  S
O2421      C2431   1.261       .  A
O2422      V2429   1.860       .  S
O2422      C2432   1.265       .  A
O2423      C2433   1.261       .  A
O2424      V2429   1.898       .  S
O2424      C2434   1.258       .  A
O2425      V2430   1.942       .  S
O2425      C2434   1.278       .  A
O2426      C2433   1.273       .  A
O2427      V2430   1.941       .  S
O2427      C2432   1.266       .  A
O2428      C2431   1.270       .  A
V2429      V2430   2.082       .  T
C2431      C2478   1.481       .  S
C2434      C2487   1.495       .  S
O2435      V2443   1.900       .  S
O2435      C2445   1.260       .  A
O2436      V2443   1.869       .  S
O2436      C2446   1.264       .  A
O2437      V2443   1.873       .  S
O2437      C2447   1.266       .  A
O2438      V2443   1.910       .  S
O2438      C2448   1.262       .  A
O2439      V2444   1.937       .  S
O2439      C2448   1.275       .  A
O2440      V2444   1.953       .  S
O2440      C2447   1.271       .  A
O2441      V2444   1.947       .  S
O2441      C2446   1.270       .  A
O2442      V2444   1.937       .  S
O2442      C2445   1.275       .  A
V2443      V2444   2.077       .  T
C2446      C2463   1.501       .  S
C2447      C2454   1.515       .  S
C2449      C2450   1.542       .  S
C2449      C2455   1.518       .  S
C2449      C2453   1.526       .  S
C2449      C2599   1.560       .  S
C2450      H2457   1.083       .  S
C2450      C2451   1.384       .  D
C2451      C2452   1.574       .  S
C2452      C2456   1.577       .  S
C2452      C2454   1.568       .  S
C2452      H2458   1.110       .  S
C2453      H2459   1.080       .  S
C2453      C2454   1.358       .  D
C2455      H2460   1.084       .  S
C2455      C2456   1.346       .  D
C2456      C2518   1.508       .  S
C2461      C2462   1.522       .  S
C2461      C2467   1.536       .  S
C2461      C2465   1.510       .  S
C2461      C2549   1.524       .  S
C2462      H2469   1.080       .  S
C2462      C2463   1.357       .  D
C2463      C2464   1.565       .  S
C2464      C2468   1.587       .  S
C2464      C2466   1.578       .  S
C2464      H2470   1.110       .  S
C2465      H2471   1.085       .  S
C2465      C2466   1.360       .  D
C2467      H2472   1.087       .  S
C2467      C2468   1.356       .  D
C2468      C2517   1.527       .  S
C2473      C2474   1.496       .  S
C2473      C2479   1.512       .  S
C2473      C2477   1.543       .  S
C2473      C2566   1.528       .  S
C2474      H2481   1.091       .  S
C2474      C2475   1.348       .  D
C2475      C2542   1.503       .  S
C2475      C2476   1.570       .  S
C2476      C2480   1.580       .  S
C2476      C2478   1.570       .  S
C2476      H2482   1.106       .  S
C2477      H2483   1.079       .  S
C2477      C2478   1.382       .  D
C2479      H2484   1.088       .  S
C2479      C2480   1.350       .  D
C2480      C2520   1.522       .  S
C2485      C2486   1.520       .  S
C2485      C2491   1.536       .  S
C2485      C2489   1.518       .  S
C2485      C2619   1.535       .  S
C2486      H2493   1.085       .  S
C2486      C2487   1.362       .  D
C2487      C2488   1.571       .  S
C2488      C2492   1.593       .  S
C2488      C2490   1.558       .  S
C2488      H2494   1.103       .  S
C2489      H2495   1.080       .  S
C2489      C2490   1.362       .  D
C2490      C2543   1.493       .  S
C2491      H2496   1.085       .  S
C2491      C2492   1.367       .  D
C2492      C2519   1.553       .  S
N2497      H2529   1.044       .  S
N2497      C2502   1.354       .  A
N2497      C2501   1.358       .  A
N2498      C2506   1.362       .  A
N2499      H2530   1.038       .  S
N2499      C2504   1.366       .  A
N2499      C2503   1.357       .  A
N2500      C2508   1.367   1_455  A
C2501      C2509   1.376       .  A
C2501      C2517   1.398       .  A
C2502      C2518   1.411       .  A
C2502      C2510   1.386       .  A
C2503      C2511   1.379       .  A
C2503      C2520   1.421       .  A
C2504      C2519   1.435       .  A
C2504      C2512   1.385       .  A
C2505      C2517   1.433       .  A
C2505      C2513   1.382       .  A
C2506      C2520   1.450       .  A
C2506      C2514   1.393       .  A
C2507      C2515   1.387       .  A
C2507      C2518   1.437       .  A
C2508      C2516   1.389       .  A
C2508      C2519   1.452       .  A
C2509      C2510   1.352       .  A
C2509      H2521   1.078       .  S
C2510      H2522   1.073       .  S
C2511      C2512   1.364       .  A
C2511      H2523   1.073       .  S
C2512      H2524   1.065       .  S
C2513      H2525   1.082       .  S
C2514      H2526   1.083       .  S
C2515      H2527   1.083       .  S
C2516      H2528   1.081       .  S
O2531      V2539   1.894       .  S
O2531      C2541   1.260       .  A
O2532      V2539   1.856       .  S
O2532      C2542   1.265       .  A
O2533      V2539   1.856       .  S
O2533      C2543   1.260       .  A
O2534      V2539   1.903       .  S
O2534      C2544   1.260       .  A
O2535      V2540   1.950       .  S
O2535      C2544   1.279       .  A
O2536      V2540   1.945       .  S
O2536      C2543   1.270       .  A
O2537      V2540   1.947       .  S
O2537      C2542   1.268       .  A
O2538      V2540   1.923       .  S
O2538      C2541   1.271       .  A
V2539      V2540   2.082       .  T
C2545      C2546   1.425       .  A
C2545      C2550   1.403       .  A
C2546      C2547   1.405       .  A
C2547      C2548   1.390       .  A
C2547     Br2554   1.925       .  S
C2548      C2549   1.402       .  A
C2548     Br2553   1.928       .  S
C2549      C2550   1.405       .  A
C2550     Br2551   1.926       .  S
C2555      C2556   1.418       .  A
C2555      C2560   1.415       .  A
C2555     Br2562   1.925       .  S
C2556      C2557   1.410       .  A
C2557      C2558   1.396       .  A
C2557     Br2564   1.931       .  S
C2558      C2559   1.396       .  A
C2559      C2560   1.416       .  A
C2560     Br2561   1.927       .  S
C2565      C2566   1.408       .  A
C2565      C2570   1.404       .  A
C2565     Br2572   1.929       .  S
C2566      C2567   1.450       .  A
C2567      C2568   1.392       .  A
C2567     Br2574   1.962       .  S
C2568      C2569   1.396       .  A
C2568     Br2573   1.947       .  S
C2569      C2570   1.424       .  A
C2570     Br2571   1.943       .  S
C2575      C2576   1.415       .  A
C2575      C2580   1.406       .  A
C2575     Br2582   1.930       .  S
C2576      C2577   1.404       .  A
C2577      C2578   1.403       .  A
C2577     Br2584   1.928       .  S
C2578      C2579   1.414       .  A
C2579      C2580   1.411       .  A
C2580     Br2581   1.927       .  S
C2585      C2586   1.396       .  A
C2585      C2590   1.387       .  A
C2586      C2587   1.416       .  A
C2587      C2588   1.407       .  A
C2587     Br2594   1.925       .  S
C2588      C2589   1.413       .  A
C2588     Br2593   1.928       .  S
C2589      C2590   1.398       .  A
C2590     Br2591   1.927       .  S
C2595      C2596   1.411       .  A
C2595      C2600   1.408       .  A
C2596      C2597   1.402       .  A
C2597      C2598   1.408       .  A
C2597     Br2604   1.916       .  S
C2598      C2599   1.415       .  A
C2598     Br2603   1.930       .  S
C2599      C2600   1.422       .  A
C2600     Br2601   1.933       .  S
C2605      C2606   1.425       .  A
C2605      C2610   1.408       .  A
C2605     Br2612   1.942       .  S
C2606      C2607   1.398       .  A
C2607      C2608   1.390       .  A
C2607     Br2614   1.946       .  S
C2608      C2609   1.445       .  A
C2608     Br2613   1.960       .  S
C2609      C2610   1.408       .  A
C2610     Br2611   1.924       .  S
C2615      C2616   1.407       .  A
C2615      C2620   1.402       .  A
C2615     Br2622   1.929       .  S
C2616      C2617   1.416       .  A
C2617      C2618   1.404       .  A
C2618      C2619   1.406       .  A
C2618     Br2623   1.928       .  S
C2619      C2620   1.413       .  A
C2620     Br2621   1.934       .  S
