geometry optimzed in LAMMPS
_audit_creation_date              2020-11-30 
_audit_creation_method            'lammps2cif' 
_symmetry_space_group_name_H-M    'P1' 
_symmetry_Int_Tables_number       1 
_symmetry_cell_setting            triclinic 
loop_ 
_symmetry_equiv_pos_as_xyz 
  x,y,z 
_cell_length_a                    36.66191258131744 
_cell_length_b                    36.60322287746894 
_cell_length_c                    36.788785426258954 
_cell_angle_alpha                 89.40000730489379 
_cell_angle_beta                  89.85602426375299 
_cell_angle_gamma                 90.05730239397917 
loop_ 
_atom_site_label 
_atom_site_type_symbol 
_atom_site_fract_x 
_atom_site_fract_y 
_atom_site_fract_z 
_atom_site_charge 
C1          C  0.10459462  0.86671854  0.53377016     0.01760
C2          C  0.08510244  0.86139773  0.50095608     0.01760
C3          C  0.10446384  0.86673337  0.46780071     0.01760
C4          C  0.13516696  0.89112241  0.46773832     0.01760
C5          C  0.14491710  0.90873641  0.50074176     0.01760
C6          C  0.13503070  0.89072319  0.53329098     0.01760
C7          C  0.13772909  0.08705380  0.46222747     0.01760
C8          C  0.14537088  0.06967860  0.49576241     0.01760
C9          C  0.14168235  0.09111966  0.52788043     0.01760
C10         C  0.12005937  0.12438149  0.52658716     0.01760
C11         C  0.09820148  0.12947746  0.49464723     0.01760
C12         C  0.11273652  0.11639553  0.46156967     0.01760
C13         C  0.92055629  0.10617781  0.46815764     0.01760
C14         C  0.93774058  0.11573711  0.50141254     0.01760
C15         C  0.91614014  0.11072559  0.53375088     0.01760
C16         C  0.89296362  0.07817694  0.53458601     0.01760
C17         C  0.88768914  0.05890531  0.50156993     0.01760
C18         C  0.89491150  0.07735930  0.46866083     0.01760
C19         C  0.90682596  0.85390928  0.46541721     0.01760
C20         C  0.92481595  0.84757851  0.49879294     0.01760
C21         C  0.90465947  0.85630273  0.53066807     0.01760
C22         C  0.87572343  0.88270526  0.52884521     0.01760
C23         C  0.86898817  0.90020413  0.49476938     0.01760
C24         C  0.87836587  0.88020062  0.46354858     0.01760
C25         C  0.48438314  0.12899055  0.10929122     0.01760
C26         C  0.51681810  0.13389719  0.08812897     0.01760
C27         C  0.54969887  0.12117856  0.10436276     0.01760
C28         C  0.54851452  0.09166566  0.13067455     0.01760
C29         C  0.51448595  0.07376230  0.13510313     0.01760
C30         C  0.48286947  0.09622421  0.13142254     0.01760
C31         C  0.47563066  0.09925240  0.90987474     0.01760
C32         C  0.50817578  0.10486641  0.93076237     0.01760
C33         C  0.54229432  0.09892642  0.91273803     0.01760
C34         C  0.54328322  0.07395494  0.88340158     0.01760
C35         C  0.51068597  0.05703438  0.87238612     0.01760
C36         C  0.47773915  0.07756772  0.87706078     0.01760
C37         C  0.47317189  0.89432754  0.12207379     0.01760
C38         C  0.50480847  0.91182934  0.13526126     0.01760
C39         C  0.53853196  0.89322724  0.12869532     0.01760
C40         C  0.54196806  0.87407894  0.09461420     0.01760
C41         C  0.50993209  0.86916294  0.07319220     0.01760
C42         C  0.47580880  0.87245854  0.09061265     0.01760
C43         C  0.48015935  0.87800078  0.85849960     0.01760
C44         C  0.51325689  0.89661580  0.84891321     0.01760
C45         C  0.54570249  0.87817552  0.86067772     0.01760
C46         C  0.54438424  0.85938560  0.89513774     0.01760
C47         C  0.51115235  0.85600442  0.91409819     0.01760
C48         C  0.47860249  0.86067572  0.89398791     0.01760
C49         C  0.10405666  0.45463462  0.87776019     0.01760
C50         C  0.08626512  0.48837651  0.86921091     0.01760
C51         C  0.10402728  0.52139136  0.87850057     0.01760
C52         C  0.13129118  0.52086529  0.90576769     0.01760
C53         C  0.13911307  0.48725341  0.92382993     0.01760
C54         C  0.13280125  0.45457148  0.90423440     0.01760
C55         C  0.14008087  0.52403535  0.09832431     0.01760
C56         C  0.15197005  0.49085241  0.08321849     0.01760
C57         C  0.14484214  0.45849592  0.10435645     0.01760
C58         C  0.11130561  0.45826269  0.12534890     0.01760
C59         C  0.09130940  0.49139368  0.12916966     0.01760
C60         C  0.11025313  0.52420395  0.12274383     0.01760
C61         C  0.91547429  0.52273263  0.12430757     0.01760
C62         C  0.93163223  0.48893528  0.13407377     0.01760
C63         C  0.91254780  0.45663888  0.12517524     0.01760
C64         C  0.88620669  0.45792699  0.09690895     0.01760
C65         C  0.87839767  0.49144388  0.07916261     0.01760
C66         C  0.88825280  0.52405535  0.09690575     0.01760
C67         C  0.88150610  0.52280833  0.90063073     0.01760
C68         C  0.90802049  0.52296036  0.87262553     0.01760
C69         C  0.92656682  0.49022754  0.86483912     0.01760
C70         C  0.90652469  0.45738655  0.87009398     0.01760
C71         C  0.88157630  0.45670749  0.90066897     0.01760
C72         C  0.87550576  0.48991170  0.91997512     0.01760
C73         C  0.11776223  0.90843590  0.77700088     0.41930
N74         N  0.17353241  0.92561825  0.77985404     0.00820
C75         C  0.25336192  0.07864280  0.84962711    -0.07060
H76         H  0.16983233  0.10446262  0.74295526     0.06310
C77         C  0.24486550  0.02339484  0.66354303    -0.07410
Co78       Co  0.18550456  0.99200553  0.82386157     0.74180
N79         N  0.18109322  0.05545441  0.77344144    -0.26580
Co80       Co  0.23755494  0.05266767  0.77209832     0.74070
C81         C  0.21800334  0.05230809  0.66019650     0.42030
N82         N  0.24915075  0.94246609  0.70278469     0.00440
N83         N  0.23572861  0.04883755  0.71553173     0.00540
N84         N  0.21636023  0.04224260  0.88349239    -0.47430
H85         H  0.09865839  0.95681479  0.81212792     0.06300
N86         N  0.16051465  0.03315214  0.79310231     0.00830
N87         N  0.29475048  0.04867383  0.77152618     0.00570
C88         C  0.35196205  0.05547191  0.78369905     0.42170
N89         N  0.22909392  0.91986744  0.72252136    -0.26040
C90         C  0.21352054  0.94284920  0.88856565    -0.06960
N91         N  0.15197843  0.90001852  0.76723959    -0.47150
N92         N  0.31820245  0.06916084  0.78973194    -0.47370
C93         C  0.23479579  0.90909274  0.89080807     0.41950
N94         N  0.21680130  0.03245933  0.84877082     0.00820
N95         N  0.28629136  0.91880213  0.77798325    -0.26060
N96         N  0.15576971  0.95104462  0.79783436    -0.26560
N97         N  0.30600273  0.94136141  0.75795504     0.00450
H98         H  0.29970795  0.87589685  0.81554457     0.06340
H99         H  0.36693023  0.00466035  0.75020617     0.06380
N100        N  0.23745288  0.05412729  0.82847396    -0.26600
N101        N  0.25332410  0.02243046  0.69887765    -0.26220
N102        N  0.23018964  0.92538119  0.83502272     0.00820
C103        C  0.12361582  0.07317971  0.77161273     0.42220
C104        C  0.20846797  0.89982137  0.70024135    -0.07470
N105        N  0.31095560  0.02177501  0.75434752    -0.26220
H106        H  0.25361212  0.00408396  0.64331161     0.06360
N107        N  0.12573459  0.04336825  0.79358244    -0.47440
H108        H  0.18825065  0.87983770  0.70840343     0.06350
C109        C  0.34530631  0.90693162  0.78450923     0.42050
C110        C  0.11994484  0.94237225  0.79783834    -0.06970
Co111      Co  0.22976884  0.92176454  0.77893657     0.73820
N112        N  0.24302022  0.93935740  0.66751947    -0.47160
C113        C  0.23939103  0.07102096  0.88600714     0.42320
N114        N  0.24376439  0.90006378  0.85666072    -0.47150
Co115      Co  0.28076018  0.98214116  0.72774785     0.73890
C116        C  0.34700231  0.02391506  0.76007348    -0.07470
C117        C  0.16013921  0.08118749  0.75857248    -0.07040
N118        N  0.21233113  0.95090667  0.85278881    -0.26560
N119        N  0.21370886  0.06719988  0.69333744    -0.47330
H120        H  0.26985546  0.10121125  0.83991752     0.06320
C121        C  0.30861380  0.89625296  0.79609285    -0.07450
Cl122      Cl  0.23339749  0.98715288  0.77573785    -0.50450
C123        C  0.21784325  0.91285312  0.66390447     0.42080
H124        H  0.19975745  0.95765010  0.90986493     0.06290
N125        N  0.34142034  0.93539198  0.76115831    -0.47160
C126        C  0.09511028  0.10103954  0.77227804     0.41930
N127        N  0.07677068  0.15646427  0.77537769     0.00820
C128        C  0.91972600  0.22567590  0.85043838    -0.07060
H129        H  0.89833485  0.14565995  0.74404558     0.06310
C130        C  0.97130800  0.22874349  0.66373544    -0.07410
Co131      Co  0.01083940  0.16486530  0.82224409     0.74180
N132        N  0.94725310  0.15798335  0.77317125    -0.26580
Co133      Co  0.94720049  0.21439983  0.77293842     0.74070
C134        C  0.94092635  0.20318306  0.66030354     0.42030
N135        N  0.05540358  0.23295576  0.69945736     0.00440
N136        N  0.94935171  0.21520415  0.71658019     0.00540
N137        N  0.95838808  0.19069080  0.88357035    -0.47430
H138        H  0.04797759  0.08043761  0.80874959     0.06300
N139        N  0.97000960  0.13810959  0.79280139     0.00830
N140        N  0.94850011  0.27102360  0.77348156     0.00570
C141        C  0.93932500  0.32689198  0.78736173     0.42170
N142        N  0.07986171  0.21409721  0.71789435    -0.26040
C143        C  0.06156180  0.19270336  0.88503829    -0.06960
N144        N  0.10271978  0.13559717  0.76209779    -0.47150
N145        N  0.92723793  0.29252775  0.79308162    -0.47370
C146        C  0.09519646  0.21427961  0.88623404     0.41950
N147        N  0.96909383  0.19348856  0.84901062     0.00820
N148        N  0.07959776  0.27033505  0.77449620    -0.26060
N149        N  0.05219664  0.13774346  0.79419839    -0.26560
N150        N  0.05513308  0.28912785  0.75603307     0.00450
H151        H  0.12295430  0.28665431  0.81053078     0.06340
H152        H  0.98800348  0.34613763  0.75225513     0.06380
N153        N  0.94606737  0.21287198  0.82917930    -0.26600
N154        N  0.97482034  0.23394203  0.69936509    -0.26220
N155        N  0.07646473  0.21208541  0.83120965     0.00820
C156        C  0.93026243  0.10017341  0.77295604     0.42220
C157        C  0.10204314  0.19726692  0.69419040    -0.07470
N158        N  0.97425609  0.28909130  0.75582718    -0.26220
H159        H  0.98902950  0.24035521  0.64324181     0.06360
N160        N  0.96012990  0.10312476  0.79440484    -0.47440
H161        H  0.12434878  0.17932124  0.70139462     0.06350
C162        C  0.08746457  0.33024541  0.78230987     0.42050
C163        C  0.06159851  0.10218563  0.79391786    -0.06970
Co164      Co  0.07882188  0.21318411  0.77479635     0.73820
N165        N  0.05927631  0.22948516  0.66381221    -0.47160
C166        C  0.92759984  0.21105087  0.88633560     0.42320
N167        N  0.10255342  0.22500918  0.85196776    -0.47150
Co168      Co  0.01478060  0.26204558  0.72698182     0.73890
C169        C  0.97034992  0.32467552  0.76244332    -0.07470
C170        C  0.92208142  0.13637620  0.75887809    -0.07040
N171        N  0.05190604  0.19300266  0.84971877    -0.26560
N172        N  0.92878652  0.19594172  0.69428513    -0.47330
H173        H  0.89565010  0.23994708  0.84102454     0.06320
C174        C  0.10117779  0.29393656  0.79206800    -0.07450
Cl175      Cl  0.01295875  0.21363395  0.77431485    -0.50450
C176        C  0.08838516  0.20756645  0.65806524     0.42080
H177        H  0.04819834  0.17731391  0.90651072     0.06290
N178        N  0.05828481  0.32484919  0.76065426    -0.47160
C179        C  0.09069098  0.87941828  0.22392055     0.41930
N180        N  0.07511431  0.82337633  0.21879533     0.00820
C181        C  0.92141667  0.74581589  0.14653522    -0.07060
H182        H  0.89581331  0.82709887  0.25131379     0.06310
C183        C  0.97296950  0.74880687  0.33403201    -0.07410
Co184      Co  0.00960962  0.81130004  0.17328132     0.74180
N185        N  0.94552061  0.81606200  0.22259240    -0.26580
Co186      Co  0.94789627  0.75962793  0.22438783     0.74070
C187        C  0.94134792  0.77230199  0.33706336     0.42030
N188        N  0.05607822  0.74939610  0.29639492     0.00440
N189        N  0.95011057  0.76025770  0.28101079     0.00540
N190        N  0.95875554  0.78222048  0.11317748    -0.47430
H191        H  0.04277095  0.89876690  0.18781108     0.06300
N192        N  0.96775415  0.83650049  0.20270538     0.00830
N193        N  0.95142822  0.70285057  0.22586690     0.00570
C194        C  0.94243411  0.64589655  0.21626898     0.42170
N195        N  0.07946741  0.76882647  0.27703938    -0.26040
C196        C  0.06109645  0.78305022  0.11027404    -0.06960
N197        N  0.09974300  0.84506702  0.23286116    -0.47150
N198        N  0.92994909  0.67973992  0.20858502    -0.47370
C199        C  0.09513153  0.76196110  0.10955659     0.41950
N200        N  0.96932031  0.78013631  0.14771300     0.00820
N201        N  0.08206595  0.71055100  0.22206073    -0.26060
N202        N  0.04982042  0.84115762  0.20035176    -0.26560
N203        N  0.05853348  0.69096259  0.24107438     0.00450
H204        H  0.12370047  0.69601517  0.18314335     0.06340
H205        H  0.99318731  0.62950415  0.24912079     0.06380
N206        N  0.94704499  0.75991860  0.16781829    -0.26600
N207        N  0.97652460  0.74310389  0.29836627    -0.26220
N208        N  0.07690765  0.76657967  0.16457725     0.00820
C209        C  0.92654590  0.87318606  0.22177915     0.42220
C210        C  0.09720562  0.79170906  0.29916579    -0.07470
N211        N  0.97808090  0.68631035  0.24349239    -0.26220
H212        H  0.99123892  0.73921951  0.35507260     0.06360
N213        N  0.95676115  0.87106065  0.20064250    -0.47440
H214        H  0.11735997  0.81166950  0.29095599     0.06350
C215        C  0.08959968  0.65151268  0.21144295     0.42050
C216        C  0.05758430  0.87721777  0.20163060    -0.06970
Co217      Co  0.07919556  0.76721025  0.22063580     0.73820
N218        N  0.05596063  0.75875917  0.33109154    -0.47160
C219        C  0.92887432  0.76065051  0.11042445     0.42320
N220        N  0.10302804  0.75320421  0.14411095    -0.47150
Co221      Co  0.01751417  0.71656129  0.27054879     0.73890
C222        C  0.97475111  0.65018768  0.23886352    -0.07470
C223        C  0.91931053  0.83693932  0.23628529    -0.07040
N224        N  0.05174693  0.78424204  0.14573367    -0.26560
N225        N  0.92865070  0.77879460  0.30321834    -0.47330
H226        H  0.89778021  0.73076379  0.15605075     0.06320
C227        C  0.10313459  0.68794952  0.20273866    -0.07450
Cl228      Cl  0.01349630  0.76362394  0.22206925    -0.50450
C229        C  0.08079983  0.78574330  0.33480209     0.42080
H230        H  0.04696473  0.79669236  0.08823179     0.06290
N231        N  0.06156539  0.65550664  0.23489417    -0.47160
C232        C  0.35214600  0.77907829  0.06283936     0.41930
N233        N  0.29566157  0.76436117  0.05835373     0.00820
C234        C  0.20921953  0.68829608  0.91263315    -0.07060
H235        H  0.30251210  0.81176327  0.89269891     0.06310
C236        C  0.21386082  0.87879613  0.95282274    -0.07410
Co237      Co  0.28169775  0.71784358  0.99387447     0.74180
N238        N  0.28749119  0.76873609  0.93069863    -0.26580
Co239      Co  0.23073776  0.76830067  0.93278208     0.74070
C240        C  0.23482226  0.88090588  0.91897251     0.42030
N241        N  0.21675636  0.83981700  0.04276843     0.00440
N242        N  0.23055448  0.82490083  0.93568065     0.00540
N243        N  0.24208376  0.65618434  0.95376453    -0.47430
H244        H  0.36831128  0.74332527  0.01472308     0.06300
N245        N  0.30687241  0.74826350  0.95305422     0.00830
N246        N  0.17435583  0.76886974  0.93635180     0.00570
C247        C  0.11856273  0.76615210  0.91916191     0.42170
N248        N  0.23775310  0.81959445  0.06389077    -0.26040
C249        C  0.25054901  0.65343260  0.04043154    -0.06960
N250        N  0.31860737  0.78520180  0.07674021    -0.47150
N251        N  0.15279748  0.75617844  0.91086648    -0.47370
C252        C  0.22846760  0.65061098  0.07329500     0.41950
N253        N  0.24945551  0.69162529  0.95534220     0.00820
N254        N  0.18185209  0.76343421  0.06547936    -0.26060
N255        N  0.31204108  0.74601317  0.03234546    -0.26560
N256        N  0.16135189  0.78293827  0.04306614     0.00450
H257        H  0.16971562  0.73204840  0.11365979     0.06340
H258        H  0.09955315  0.80181163  0.96706789     0.06380
N259        N  0.23018287  0.71109863  0.93193445    -0.26600
N260        N  0.21287320  0.84289457  0.96114121    -0.26220
N261        N  0.23921458  0.70691842  0.06178448     0.00820
C262        C  0.34646241  0.78158360  0.92545431     0.42220
C263        C  0.25273232  0.84032690  0.08915760    -0.07470
N264        N  0.15659331  0.78721176  0.96150488    -0.26220
H265        H  0.20005261  0.90021211  0.96747411     0.06360
N266        N  0.34222218  0.75523246  0.95088988    -0.47440
H267        H  0.26877299  0.83012117  0.11167549     0.06350
C268        C  0.12377942  0.76054346  0.08193254     0.42050
C269        C  0.34794838  0.75306446  0.03355369    -0.06970
Co270      Co  0.23874339  0.76347961  0.06305911     0.73820
N271        N  0.21477753  0.87417208  0.05416232    -0.47160
C272        C  0.21735283  0.65195269  0.92698878     0.42320
N273        N  0.22176101  0.68481504  0.08456056    -0.47150
Co274      Co  0.18609900  0.81399459  0.00223812     0.73890
C275        C  0.12079440  0.78725290  0.95282933    -0.07470
C276        C  0.31027977  0.79070220  0.91193117    -0.07040
N277        N  0.25575297  0.68933779  0.03542908    -0.26560
N278        N  0.24374228  0.84656161  0.91012282    -0.47330
H279        H  0.18914342  0.69622950  0.89260305     0.06320
C280        C  0.16040218  0.74779907  0.09044196    -0.07450
Cl281      Cl  0.23419139  0.76586559  0.99799192    -0.50450
C282        C  0.23738493  0.87632193  0.08324246     0.42080
H283        H  0.25972593  0.63206293  0.02252684     0.06290
N284        N  0.12636372  0.78277980  0.05250293    -0.47160
C285        C  0.08204737  0.19980350  0.33181711     0.41930
N286        N  0.07176850  0.21317546  0.27594833     0.00820
C287        C  0.91843790  0.28445252  0.19757132    -0.07060
H288        H  0.90345470  0.16123392  0.29182207     0.06310
C289        C  0.96450563  0.09446353  0.20099295    -0.07410
Co290      Co  0.00324188  0.25567984  0.26655877     0.74180
N291        N  0.94175230  0.20338636  0.27551053    -0.26580
Co292      Co  0.94173358  0.20434104  0.21850794     0.74070
C293        C  0.93179485  0.09147015  0.22378851     0.42030
N294        N  0.05344273  0.13599262  0.20087100     0.00440
N295        N  0.94655113  0.14792035  0.21822511     0.00540
N296        N  0.95829180  0.31661670  0.23105329    -0.47430
H297        H  0.03144819  0.23101439  0.35103449     0.06300
N298        N  0.96506725  0.22326590  0.29407957     0.00830
N299        N  0.94382117  0.20446626  0.16206424     0.00570
C300        C  0.92771034  0.21121209  0.10652054     0.42170
N301        N  0.07592307  0.15682673  0.21951699    -0.26040
C302        C  0.04123867  0.32172087  0.22870177    -0.06960
N303        N  0.09397625  0.19449956  0.29759222    -0.47150
N304        N  0.91860294  0.21890238  0.14099691    -0.47370
C305        C  0.06878244  0.32576347  0.20049418     0.41950
N306        N  0.96140997  0.28106668  0.23751114     0.00820
N307        N  0.07296598  0.21237449  0.16294735    -0.26060
N308        N  0.04528139  0.22933953  0.29392310    -0.26560
N309        N  0.05085379  0.19169734  0.14381205     0.00450
H310        H  0.12103621  0.24308494  0.14949059     0.06340
H311        H  0.97639971  0.17717266  0.08600613     0.06380
N312        N  0.93859856  0.26150713  0.21809154    -0.26600
N313        N  0.97176722  0.13059843  0.19945450    -0.26220
N314        N  0.06694737  0.26987603  0.21779719     0.00820
C315        C  0.93806977  0.19027674  0.33464987     0.42220
C316        C  0.10179040  0.13602344  0.23428701    -0.07470
N317        N  0.96928575  0.18716490  0.14353900    -0.26220
H318        H  0.97936598  0.07336169  0.18691519     0.06360
N319        N  0.96405267  0.21596731  0.32946763    -0.47440
H320        H  0.12522514  0.14591030  0.24905389     0.06350
C321        C  0.08975515  0.21267227  0.10516753     0.42050
C322        C  0.04963651  0.22258863  0.32953350    -0.06970
Co323      Co  0.07267042  0.21332777  0.21922931     0.73820
N324        N  0.06371047  0.10118794  0.20087725    -0.47160
C325        C  0.93167252  0.32103560  0.20621005     0.42320
N326        N  0.08397623  0.29272104  0.19527577    -0.47150
Co327      Co  0.01134169  0.16054430  0.17115454     0.73890
C328        C  0.96122942  0.18959320  0.10787866    -0.07470
C329        C  0.92328838  0.18179222  0.29893648    -0.07040
N330        N  0.04117303  0.28599433  0.23687555    -0.26560
N331        N  0.92242472  0.12563791  0.23292546    -0.47330
H332        H  0.89845933  0.27661157  0.17756453     0.06320
C333        C  0.09776250  0.22721710  0.14085568    -0.07450
Cl334      Cl  0.00722437  0.20838977  0.21886015    -0.50450
C335        C  0.09377529  0.09933308  0.22207922     0.42080
H336        H  0.02232261  0.34185729  0.23876619     0.06290
N337        N  0.06059883  0.19017125  0.10897933    -0.47160
C338        C  0.22784296  0.91753960  0.34184470     0.41930
N339        N  0.23460378  0.92562108  0.28404754     0.00820
C340        C  0.31322404  0.07140406  0.19478635    -0.07060
H341        H  0.19439771  0.09693795  0.28644779     0.06310
C342        C  0.12237236  0.03673779  0.20078126    -0.07410
Co343      Co  0.28202704  0.98991227  0.26772281     0.74180
N344        N  0.23392673  0.05540626  0.27296576    -0.26580
Co345      Co  0.23353989  0.05285570  0.21662930     0.74070
C346        C  0.12181701  0.07107980  0.22075971     0.42030
N347        N  0.15738567  0.94575496  0.20617976     0.00440
N348        N  0.17694550  0.05231196  0.21684750     0.00540
N349        N  0.34435413  0.03007150  0.22871115    -0.47430
H350        H  0.26792683  0.96448388  0.35385077     0.06300
N351        N  0.25245724  0.03172682  0.29287635     0.00830
N352        N  0.23265666  0.04858570  0.16068317     0.00570
C353        C  0.23530601  0.06536171  0.10482174     0.42170
N354        N  0.17621887  0.92353560  0.22748855    -0.26040
C355        C  0.34409277  0.94266418  0.23348176    -0.06960
N356        N  0.21761232  0.90507931  0.30879709    -0.47150
N357        N  0.24605391  0.07368666  0.13857114    -0.47370
C358        C  0.34521581  0.91020403  0.21086105     0.41950
N359        N  0.30883797  0.02835511  0.23527656     0.00820
N360        N  0.23130360  0.91876402  0.17080462    -0.26060
N361        N  0.25476240  0.95118729  0.29886970    -0.26560
N362        N  0.21299610  0.94181134  0.14991089     0.00450
H363        H  0.26142940  0.86999453  0.16004654     0.06340
H364        H  0.19736583  0.01834702  0.08735534     0.06380
N365        N  0.29009241  0.05205868  0.21566693    -0.26600
N366        N  0.15782246  0.02716065  0.19991726    -0.26220
N367        N  0.28973937  0.92138567  0.22559799     0.00820
C368        C  0.22121449  0.06263120  0.33130124     0.42220
C369        C  0.15341795  0.89999757  0.24332171    -0.07470
N370        N  0.21316478  0.02374411  0.14371979    -0.26220
H371        H  0.10029111  0.02248510  0.18759238     0.06360
N372        N  0.24505886  0.03468984  0.32802853    -0.47440
H373        H  0.16159442  0.87670368  0.25970809     0.06350
C374        C  0.23459499  0.90221598  0.11329917     0.42050
C375        C  0.25318333  0.94762022  0.33497973    -0.06970
Co376      Co  0.23278339  0.92154003  0.22722567     0.73820
N377        N  0.12224594  0.93697618  0.20487046    -0.47160
C378        C  0.34892082  0.05656344  0.20338355     0.42320
N379        N  0.31049253  0.89892060  0.20655831    -0.47150
Co380      Co  0.18464251  0.98446463  0.17415408     0.73890
C381        C  0.21307140  0.03213000  0.10794478    -0.07470
C382        C  0.21374562  0.07632851  0.29492990    -0.07040
N383        N  0.30865553  0.94765917  0.24101317    -0.26560
N384        N  0.15651917  0.07896780  0.22934183    -0.47330
H385        H  0.30590129  0.09219932  0.17505527     0.06320
C386        C  0.24614225  0.89322639  0.15007058    -0.07450
Cl387      Cl  0.23322153  0.98714239  0.22145288    -0.50450
C388        C  0.11775250  0.90842265  0.22805688     0.42080
H389        H  0.36615137  0.96064956  0.24103500     0.06290
N390        N  0.21344658  0.93241502  0.11506362    -0.47160
C391        C  0.23421947  0.09428984  0.07726849     0.41930
N392        N  0.22978524  0.15048890  0.06101661     0.00820
C393        C  0.16089693  0.22640449  0.90495900    -0.07060
H394        H  0.26995434  0.14516968  0.88532738     0.06310
C395        C  0.34735572  0.22115355  0.96353193    -0.07410
Co396      Co  0.18568397  0.16145014  0.99430701     0.74180
N397        N  0.23766302  0.15594656  0.93243001    -0.26580
Co398      Co  0.23829386  0.21210183  0.93340009     0.74070
C399        C  0.35165784  0.19496450  0.93430751     0.42030
N400        N  0.30640875  0.22691388  0.04370497     0.00440
N401        N  0.29533139  0.21123871  0.93785871     0.00540
N402        N  0.12615076  0.19223471  0.94325212    -0.47430
H403        H  0.19961073  0.07521822  0.02872448     0.06300
N404        N  0.21687180  0.13558704  0.95381884     0.00830
N405        N  0.23760286  0.26889897  0.93575173     0.00570
C406        C  0.22262051  0.32519726  0.92901478     0.42170
N407        N  0.28681363  0.20715809  0.06661366    -0.26040
C408        C  0.12036165  0.18892964  0.04376935    -0.06960
N409        N  0.24313854  0.12865189  0.08631243    -0.47150
N410        N  0.21704635  0.29130426  0.91599626    -0.47370
C411        C  0.11821447  0.21051579  0.07716467     0.41950
N412        N  0.16100112  0.19226865  0.95313935     0.00820
N413        N  0.23088025  0.26447052  0.06545033    -0.26060
N414        N  0.21214354  0.13257745  0.03551800    -0.26560
N415        N  0.25064493  0.28334250  0.04189445     0.00450
H416        H  0.19476967  0.28074025  0.10889798     0.06340
H417        H  0.25827257  0.34218611  0.97692541     0.06380
N418        N  0.18176577  0.21151016  0.93063995    -0.26600
N419        N  0.31167217  0.22909717  0.96410411    -0.26220
N420        N  0.17400428  0.20708632  0.06001332     0.00820
C421        C  0.23944308  0.09871703  0.91461410     0.42220
C422        C  0.30938812  0.18822797  0.08835052    -0.07470
N423        N  0.25523776  0.28592914  0.96169110    -0.26220
H424        H  0.36726983  0.23001872  0.98314946     0.06360
N425        N  0.21623660  0.10085707  0.94336241    -0.47440
H426        H  0.30100093  0.16865379  0.10888864     0.06350
C427        C  0.22457643  0.32443950  0.07418060     0.42050
C428        C  0.21318570  0.09660952  0.04359187    -0.06970
Co429      Co  0.23025835  0.20724461  0.06397297     0.73820
N430        N  0.34182300  0.22259093  0.04846323    -0.47160
C431        C  0.12420362  0.21402930  0.91339661     0.42320
N432        N  0.15248555  0.22038302  0.08528238    -0.47150
Co433      Co  0.28171406  0.25712329  0.00271433     0.73890
C434        C  0.24848762  0.32170987  0.95874576    -0.07470
C435        C  0.25355206  0.13509407  0.90773693    -0.07040
N436        N  0.15618900  0.18858156  0.03504419    -0.26560
N437        N  0.31815408  0.18974751  0.91994474    -0.47330
H438        H  0.17066614  0.24177045  0.88161347     0.06320
C439        C  0.21342808  0.28808627  0.08720994    -0.07450
Cl440      Cl  0.23387367  0.20949440  0.99863169    -0.50450
C441        C  0.34595288  0.19875410  0.07630772     0.42080
H442        H  0.09900566  0.17446477  0.02966994     0.06290
N443        N  0.24750952  0.31902576  0.04605716    -0.47160
C444        C  0.80804081  0.04531838  0.34256150     0.41930
N445        N  0.79211942  0.04276555  0.28678629     0.00820
C446        C  0.70344960  0.90047508  0.20302332    -0.07060
H447        H  0.82318531  0.86797506  0.28420725     0.06310
C448        C  0.89693755  0.93522522  0.19858550    -0.07410
Co449      Co  0.74193728  0.98075702  0.27247488     0.74180
N450        N  0.78712312  0.91336727  0.27310739    -0.26580
Co451      Co  0.78550012  0.91935825  0.21698618     0.74070
C452        C  0.89753750  0.90033354  0.21823831     0.42030
N453        N  0.86454449  0.02595675  0.20598695     0.00440
N454        N  0.84228547  0.91888179  0.21454565     0.00540
N455        N  0.67591542  0.94171968  0.23907610    -0.47430
H456        H  0.77153448  0.99670007  0.35852827     0.06300
N457        N  0.76993442  0.93646325  0.29436505     0.00830
N458        N  0.78416812  0.92702166  0.16115862     0.00570
C459        C  0.78093761  0.91187580  0.10510875     0.42170
N460        N  0.84671621  0.04725631  0.22857419    -0.26040
C461        C  0.67995561  0.03158709  0.24432763    -0.06960
N462        N  0.81358389  0.06049861  0.30951908    -0.47150
N463        N  0.76988629  0.90306820  0.13892693    -0.47370
C464        C  0.67772514  0.06349065  0.22020373     0.41950
N465        N  0.71187616  0.94448503  0.24087235     0.00820
N466        N  0.79045153  0.05642964  0.17462923    -0.26060
N467        N  0.77350277  0.01633431  0.30286533    -0.26560
N468        N  0.80683305  0.03371678  0.15224571     0.00450
H469        H  0.76586001  0.10902480  0.16748047     0.06340
H470        H  0.82034950  0.95810210  0.08778271     0.06380
N471        N  0.72864842  0.92087991  0.21981715    -0.26600
N472        N  0.86144615  0.94467424  0.19791685    -0.26220
N473        N  0.73390463  0.05131668  0.23175677     0.00820
C474        C  0.79826163  0.90078314  0.33103345     0.42220
C475        C  0.87006697  0.06973419  0.24441565    -0.07470
N476        N  0.80431549  0.95180079  0.14416054    -0.26220
H477        H  0.91911751  0.95036492  0.18615289     0.06360
N478        N  0.77614235  0.93009740  0.32922570    -0.47440
H479        H  0.86251725  0.09225504  0.26169141     0.06350
C480        C  0.78826372  0.07779542  0.11840579     0.42050
C481        C  0.78153231  0.01604372  0.33845005    -0.06970
Co482      Co  0.79064581  0.05008264  0.23063778     0.73820
N483        N  0.89971680  0.03468276  0.20373856    -0.47160
C484        C  0.66836862  0.91435663  0.21587732     0.42320
N485        N  0.71240749  0.07423133  0.21367297    -0.47150
Co486      Co  0.83496076  0.98910004  0.17419354     0.73890
C487        C  0.80404163  0.94440859  0.10833448    -0.07470
C488        C  0.80557514  0.88948213  0.29387546    -0.07040
N489        N  0.71555217  0.02537629  0.24883514    -0.26560
N490        N  0.86282223  0.89197167  0.22683407    -0.47330
H491        H  0.70899442  0.87906180  0.18374755     0.06320
C492        C  0.77815656  0.08500486  0.15579527    -0.07450
Cl493      Cl  0.78817562  0.98478002  0.22334153    -0.50450
C494        C  0.90508975  0.06197644  0.22780218     0.42080
H495        H  0.65856315  0.01436686  0.25478060     0.06290
N496        N  0.80680561  0.04584468  0.11803110    -0.47160
C497        C  0.67389516  0.21360914  0.07827759     0.41930
N498        N  0.73016689  0.22000156  0.06337087     0.00820
C499        C  0.80932675  0.28471155  0.90820050    -0.07060
H500        H  0.71336078  0.16196103  0.89797334     0.06310
C501        C  0.80585105  0.09638402  0.95528442    -0.07410
Co502      Co  0.73927689  0.25947528  0.99313667     0.74180
N503        N  0.72938485  0.20554808  0.93385721    -0.26580
Co504      Co  0.78650097  0.20579371  0.93245343     0.74070
C505        C  0.78397396  0.09367769  0.92196991     0.42030
N506        N  0.80489525  0.14001202  0.04570764     0.00440
N507        N  0.78635656  0.14961668  0.93844056     0.00540
N508        N  0.77642001  0.31798560  0.94764784    -0.47430
H509        H  0.65472682  0.24322322  0.02633967     0.06300
N510        N  0.71083546  0.22578475  0.95688611     0.00830
N511        N  0.84334204  0.20453518  0.93282599     0.00570
C512        C  0.89873725  0.20735763  0.91393042     0.42170
N513        N  0.78662708  0.16180395  0.06765689    -0.26040
C514        C  0.77578745  0.32691560  0.03094140    -0.06960
N515        N  0.70835225  0.20548084  0.08833259    -0.47150
N516        N  0.86411454  0.21642904  0.90592794    -0.47370
C517        C  0.80068903  0.33136344  0.06142248     0.41950
N518        N  0.76840856  0.28285759  0.95052233     0.00820
N519        N  0.84317403  0.21660846  0.06126664    -0.26060
N520        N  0.71209790  0.23601406  0.03678669    -0.26560
N521        N  0.86190393  0.19486592  0.03978904     0.00450
H522        H  0.85743774  0.24836984  0.10770877     0.06340
H523        H  0.91958854  0.17444449  0.96357615     0.06380
N524        N  0.78756787  0.26262718  0.92810482    -0.26600
N525        N  0.80554861  0.13226957  0.96351668    -0.26220
N526        N  0.78771450  0.27473498  0.05614570     0.00820
C527        C  0.67037812  0.19110056  0.93229436     0.42220
C528        C  0.77330535  0.14222819  0.09532298    -0.07470
N529        N  0.86211392  0.18748377  0.95845490    -0.26220
H530        H  0.82168940  0.07554538  0.96904568     0.06360
N531        N  0.67544714  0.21763225  0.95720794    -0.47440
H532        H  0.75946886  0.15338907  0.11869451     0.06350
C533        C  0.90114617  0.21593892  0.07734459     0.42050
C534        C  0.67640329  0.23345769  0.04378950    -0.06970
Co535      Co  0.78684572  0.21833299  0.06264907     0.73820
N536        N  0.80610969  0.10580695  0.05818017    -0.47160
C537        C  0.80223408  0.32140121  0.92177250     0.42320
N538        N  0.80723175  0.29792108  0.07547018    -0.47150
Co539      Co  0.83427936  0.16281015  0.00203614     0.73890
C540        C  0.89769934  0.18764928  0.94882727    -0.07470
C541        C  0.70608796  0.18302485  0.91700932    -0.07040
N542        N  0.76931813  0.29081488  0.02970694    -0.26560
N543        N  0.77331350  0.12772934  0.91354345    -0.47330
H544        H  0.82931263  0.27602771  0.88849070     0.06320
C545        C  0.86574379  0.23186363  0.08491376    -0.07450
Cl546      Cl  0.78674879  0.21134072  0.99762279    -0.50450
C547        C  0.78620497  0.10530320  0.08922972     0.42080
H548        H  0.76532396  0.34736048  0.01230330     0.06290
N549        N  0.89681337  0.19280656  0.04919920    -0.47160
C550        C  0.07676048  0.78094240  0.66411125     0.41930
N551        N  0.06961746  0.76634538  0.72038806     0.00820
C552        C  0.91716795  0.69150779  0.79958693    -0.07060
H553        H  0.89936784  0.81153284  0.70995724     0.06310
C554        C  0.96096315  0.88095417  0.79733086    -0.07410
Co555      Co  0.00306637  0.72099367  0.73204529     0.74180
N556        N  0.94022109  0.77166373  0.72495617    -0.26580
Co557      Co  0.94069476  0.77074565  0.78109818     0.74070
C558        C  0.92819367  0.88271887  0.77451219     0.42030
N559        N  0.05062700  0.84201063  0.79759243     0.00440
N560        N  0.94399806  0.82690040  0.78144072     0.00540
N561        N  0.95867658  0.65954398  0.76742381    -0.47430
H562        H  0.02765119  0.74655224  0.64686767     0.06300
N563        N  0.96371309  0.75245822  0.70589824     0.00830
N564        N  0.94277132  0.77020149  0.83718252     0.00570
C565        C  0.92499566  0.76437186  0.89236476     0.42170
N566        N  0.07299998  0.82210642  0.77778412    -0.26040
C567        C  0.04453506  0.65542899  0.76796764    -0.06960
N568        N  0.08970178  0.78672317  0.69793485    -0.47150
N569        N  0.91698832  0.75602829  0.85789661    -0.47370
C570        C  0.07499887  0.65183120  0.79306481     0.41950
N571        N  0.96224129  0.69509683  0.76177202     0.00820
N572        N  0.07269744  0.76561441  0.83375950    -0.26060
N573        N  0.04358095  0.74863200  0.70333913    -0.26560
N574        N  0.05022764  0.78526682  0.85372099     0.00450
H575        H  0.12146774  0.73563843  0.84588239     0.06340
H576        H  0.97281751  0.79956197  0.91317756     0.06380
N577        N  0.93864987  0.71433289  0.78064040    -0.26600
N578        N  0.96889942  0.84501781  0.79975687    -0.26220
N579        N  0.06874416  0.70828772  0.77800095     0.00820
C580        C  0.93499354  0.78456797  0.66662796     0.42220
C581        C  0.09778841  0.84388808  0.76243555    -0.07470
N582        N  0.96776160  0.78803325  0.85574767    -0.26220
H583        H  0.97555368  0.90274267  0.81060883     0.06360
N584        N  0.96151534  0.75941436  0.67062707    -0.47440
H585        H  0.12100296  0.83483933  0.74672215     0.06350
C586        C  0.09004204  0.76440467  0.89128188     0.42050
C587        C  0.04623454  0.75578310  0.66760331    -0.06970
Co588      Co  0.07181538  0.76543738  0.77731918     0.73820
N589        N  0.06019363  0.87707995  0.79801156    -0.47160
C590        C  0.93073355  0.65535486  0.79093253     0.42320
N591        N  0.08839224  0.68569595  0.79848457    -0.47150
Co592      Co  0.00943335  0.81588653  0.82763039     0.73890
C593        C  0.95866365  0.78613935  0.89128329    -0.07470
C594        C  0.92032897  0.79234366  0.70231614    -0.07040
N595        N  0.04251645  0.69133944  0.76039539    -0.26560
N596        N  0.91944186  0.84825500  0.76632241    -0.47330
H597        H  0.89601507  0.69924702  0.81851349     0.06320
C598        C  0.09799137  0.75083115  0.85517819    -0.07450
Cl599      Cl  0.00629486  0.76823919  0.77962900    -0.50450
C600        C  0.08952171  0.88016946  0.77574302     0.42080
H601        H  0.02575191  0.63468819  0.75887434     0.06290
N602        N  0.06031477  0.78623088  0.88844490    -0.47160
C603        C  0.90134657  0.07270485  0.77631396     0.41930
N604        N  0.84557001  0.05553318  0.78049099     0.00820
C605        C  0.77224756  0.89578879  0.84774776    -0.07060
H606        H  0.85663554  0.88050187  0.73891689     0.06310
C607        C  0.76737540  0.95559940  0.66247954    -0.07410
Co608      Co  0.83532977  0.98725130  0.82379124     0.74180
N609        N  0.84251670  0.92699216  0.77099580    -0.26580
Co610      Co  0.78579721  0.92689337  0.77057763     0.74070
C611        C  0.79103266  0.92431429  0.65627061     0.42030
N612        N  0.76911931  0.03870019  0.70353251     0.00440
N613        N  0.78478160  0.93232631  0.71380390     0.00540
N614        N  0.80636842  0.93305744  0.88268271    -0.47430
H615        H  0.92122560  0.02337803  0.81050200     0.06300
N616        N  0.86171953  0.94867994  0.79209444     0.00830
N617        N  0.72896294  0.92888413  0.77088255     0.00570
C618        C  0.67259216  0.91716132  0.77987983     0.42170
N619        N  0.78957730  0.06091270  0.72274302    -0.26040
C620        C  0.80677080  0.03332190  0.88967992    -0.06960
N621        N  0.86690200  0.08145300  0.76741771    -0.47150
N622        N  0.70670273  0.90525196  0.78686303    -0.47370
C623        C  0.78518010  0.06675631  0.89289298     0.41950
N624        N  0.80572043  0.94436831  0.84814022     0.00820
N625        N  0.73190663  0.05899438  0.78065373    -0.26060
N626        N  0.86378215  0.02981981  0.79808297    -0.26560
N627        N  0.71290116  0.03587309  0.76107932     0.00450
H628        H  0.71618022  0.09705456  0.82248342     0.06340
H629        H  0.65417535  0.96877890  0.74901250     0.06380
N630        N  0.78664958  0.92237171  0.82719903    -0.26600
N631        N  0.76581947  0.95886062  0.69854545    -0.26220
N632        N  0.78936525  0.05259695  0.83655097     0.00820
C633        C  0.90087505  0.91142285  0.77033775     0.42220
C634        C  0.81136731  0.07954977  0.69953786    -0.07470
N635        N  0.71131681  0.95591486  0.75480715    -0.26220
H636        H  0.75314918  0.97297608  0.64334865     0.06360
N637        N  0.89675836  0.93968217  0.79327960    -0.47440
H638        H  0.83277664  0.09822067  0.70711928     0.06350
C639        C  0.67261488  0.06293476  0.79356054     0.42050
C640        C  0.89959026  0.03843250  0.79719641    -0.06970
Co641      Co  0.78904896  0.05800664  0.78001900     0.73820
N642        N  0.77592276  0.04087305  0.66818275    -0.47160
C643        C  0.78520744  0.90269196  0.88442838     0.42320
N644        N  0.77581034  0.07693651  0.85892173    -0.47150
Co645      Co  0.73911339  0.99762560  0.72902486     0.73890
C646        C  0.67542303  0.95078258  0.75883935    -0.07470
C647        C  0.86502745  0.90333886  0.75536710    -0.07040
N648        N  0.80760007  0.02656824  0.85371579    -0.26560
N649        N  0.80056543  0.91102530  0.68942152    -0.47330
H650        H  0.75695447  0.87280395  0.83758371     0.06320
C651        C  0.70867018  0.07758294  0.80191870    -0.07450
Cl652      Cl  0.78733545  0.99241020  0.77594816    -0.50450
C653        C  0.80187696  0.06655348  0.66320375     0.42080
H654        H  0.82106072  0.01796644  0.91048078     0.06290
N655        N  0.67753719  0.03681605  0.76847256    -0.47160
C656        C  0.78286579  0.88281920  0.07828498     0.41930
N657        N  0.78809333  0.82635984  0.06429189     0.00820
C658        C  0.86061740  0.74722305  0.91265479    -0.07060
H659        H  0.75386782  0.82815110  0.88591038     0.06310
C660        C  0.67274520  0.74927425  0.96778115    -0.07410
Co661      Co  0.83341385  0.81396135  0.99872226     0.74180
N662        N  0.78307362  0.81834384  0.93541520    -0.26580
Co663      Co  0.78199182  0.76185765  0.93928142     0.74070
C664        C  0.66848710  0.77481494  0.93789942     0.42030
N665        N  0.71151630  0.75006098  0.04878545     0.00440
N666        N  0.72512305  0.76222315  0.94351441     0.00540
N667        N  0.89379448  0.78336589  0.94955340    -0.47430
H668        H  0.81848238  0.90117044  0.02954799     0.06300
N669        N  0.80334427  0.83909179  0.95645756     0.00830
N670        N  0.78167710  0.70507043  0.94338582     0.00570
C671        C  0.79278432  0.64845162  0.93426060     0.42170
N672        N  0.73063755  0.77062569  0.07089301    -0.26040
C673        C  0.89803224  0.78593820  0.04927528    -0.06960
N674        N  0.77412650  0.84857904  0.08846271    -0.47150
N675        N  0.79898394  0.68249014  0.92139992    -0.47370
C676        C  0.89969029  0.76475847  0.08339959     0.41950
N677        N  0.85889797  0.78239090  0.95929515     0.00820
N678        N  0.78749560  0.71262846  0.07386551    -0.26060
N679        N  0.80615839  0.84382626  0.03834984    -0.26560
N680        N  0.76840127  0.69265208  0.05120043     0.00450
H681        H  0.82657685  0.69831982  0.11556097     0.06340
H682        H  0.76171793  0.63096996  0.98602240     0.06380
N683        N  0.83886100  0.76225659  0.93740219    -0.26600
N684        N  0.70873227  0.74380859  0.96986017    -0.26220
N685        N  0.84391425  0.76992782  0.06678067     0.00820
C686        C  0.78393050  0.87502631  0.91395572     0.42220
C687        C  0.70778239  0.79356340  0.08790428    -0.07470
N688        N  0.76529681  0.68801097  0.97064411    -0.26220
H689        H  0.65239629  0.73898697  0.98657468     0.06360
N690        N  0.80543953  0.87335741  0.94395383    -0.47440
H691        H  0.71555610  0.81492839  0.10636606     0.06350
C692        C  0.79774223  0.65317703  0.08356484     0.42050
C693        C  0.80474297  0.87996718  0.04504070    -0.06970
Co694      Co  0.78752448  0.76982567  0.06981446     0.73820
N695        N  0.67635884  0.75849518  0.04906971    -0.47160
C696        C  0.89691094  0.76124077  0.92054419     0.42320
N697        N  0.86515480  0.75631553  0.09233438    -0.47150
Co698      Co  0.73792417  0.71767606  0.01029536     0.73890
C699        C  0.77094180  0.65199447  0.96728631    -0.07470
C700        C  0.76917616  0.83866076  0.90860800    -0.07040
N701        N  0.86216977  0.78743798  0.04094709    -0.26560
N702        N  0.70191610  0.78200534  0.92402456    -0.47330
H703        H  0.85154646  0.73148573  0.88964203     0.06320
C704        C  0.80700659  0.69006007  0.09531193    -0.07450
Cl705      Cl  0.78536479  0.76578961  0.00449547    -0.50450
C706        C  0.67173993  0.78568991  0.07315875     0.42080
H707        H  0.91984195  0.79900263  0.03414184     0.06290
N708        N  0.77427895  0.65714702  0.05555677    -0.47160
C709        C  0.92839812  0.58756659  0.86875604    -0.09680
C710        C  0.91552295  0.55639827  0.85114527     0.06510
C711        C  0.90802372  0.55807550  0.81353671    -0.03450
C712        C  0.91354651  0.59063058  0.79434529    -0.07900
C713        C  0.92505850  0.62200604  0.81229050     0.05630
C714        C  0.93250499  0.62049958  0.84984337    -0.02930
Br715      Br  0.94942416  0.66192634  0.87659468    -0.02620
H716        H  0.93496400  0.58635319  0.89740185     0.09540
H717        H  0.90802547  0.59170524  0.76542495     0.07560
Br718      Br  0.88891956  0.51749850  0.78702005    -0.03050
C719        C  0.86928518  0.57974972  0.93624156    -0.09680
C720        C  0.85890563  0.55563722  0.90867402     0.06510
C721        C  0.82758877  0.56403485  0.88785174    -0.03450
C722        C  0.80576448  0.59397361  0.89689713    -0.07900
C723        C  0.81587918  0.61716732  0.92506247     0.05630
C724        C  0.84880324  0.61101884  0.94344386    -0.02930
Br725      Br  0.86837462  0.64672403  0.97569457    -0.02620
H726        H  0.89407289  0.57539366  0.95126253     0.09540
H727        H  0.78129420  0.59964171  0.88138615     0.07560
Br728      Br  0.81435838  0.53729302  0.84544325    -0.03050
C729        C  0.88509842  0.39947315  0.83749659    -0.09680
C730        C  0.91280370  0.42523122  0.84476791     0.06510
C731        C  0.94602600  0.42010880  0.82584888    -0.03450
C732        C  0.95595525  0.38527819  0.81526396    -0.07900
C733        C  0.92910063  0.35895839  0.80915500     0.05630
C734        C  0.89293480  0.36652298  0.81982994    -0.02930
Br735      Br  0.85322333  0.33402713  0.80987234    -0.02620
H736        H  0.85715799  0.40491594  0.84494846     0.09540
H737        H  0.98321222  0.38147532  0.80453671     0.07560
Br738      Br  0.95869609  0.45232473  0.78652213    -0.03050
C739        C  0.88052816  0.38994211  0.91759481    -0.09680
C740        C  0.86139131  0.42279197  0.91162229     0.06510
C741        C  0.82286707  0.42129446  0.90982465    -0.03450
C742        C  0.80468374  0.38800076  0.91377740    -0.07900
C743        C  0.82385828  0.35518822  0.91717483     0.05630
C744        C  0.86232399  0.35621742  0.91891518    -0.02930
Br745      Br  0.89184466  0.31303491  0.92236373    -0.02620
H746        H  0.90996982  0.39005024  0.91816337     0.09540
H747        H  0.77515331  0.38753801  0.91243977     0.07560
Br748      Br  0.79302823  0.46228762  0.89713085    -0.03050
C749        C  0.90011063  0.56074194  0.17739095    -0.09680
C750        C  0.92271301  0.55495782  0.14707915     0.06510
C751        C  0.95165316  0.57929159  0.13993218    -0.03450
C752        C  0.95720917  0.60895585  0.16276190    -0.07900
C753        C  0.93496475  0.61446862  0.19311554     0.05630
C754        C  0.90627447  0.59012675  0.20058483    -0.02930
Br755      Br  0.87584229  0.59542648  0.24261762    -0.02620
H756        H  0.87794135  0.54199239  0.18327307     0.09540
H757        H  0.97907304  0.62785035  0.15699007     0.07560
Br758      Br  0.98502758  0.57313922  0.10041857    -0.03050
C759        C  0.85376905  0.61873172  0.06878353    -0.09680
C760        C  0.82094988  0.62052965  0.08815005     0.06510
C761        C  0.81032918  0.59062729  0.10997684    -0.03450
C762        C  0.83242570  0.55939175  0.11181349    -0.07900
C763        C  0.86512184  0.55723153  0.09184425     0.05630
C764        C  0.87547692  0.58729395  0.06981418    -0.02930
Br765      Br  0.91763359  0.58705556  0.03924549    -0.02620
H766        H  0.86231195  0.64193542  0.05245671     0.09540
H767        H  0.82427882  0.53677943  0.12925556     0.07560
Br768      Br  0.76664619  0.59193766  0.13861794    -0.03050
C769        C  0.91301625  0.38610536  0.20218091    -0.09680
C770        C  0.92684967  0.35518156  0.18481640     0.06510
C771        C  0.93768382  0.35812737  0.14804674    -0.03450
C772        C  0.93409706  0.39154600  0.12929826    -0.07900
C773        C  0.91921629  0.42227696  0.14639618     0.05630
C774        C  0.90865668  0.41924198  0.18326783    -0.02930
Br775      Br  0.88608137  0.45875746  0.20871381    -0.02620
H776        H  0.90487082  0.38427302  0.23047367     0.09540
H777        H  0.94279991  0.39352107  0.10120116     0.07560
Br778      Br  0.95892405  0.31785428  0.12262860    -0.03050
C779        C  0.81089920  0.38708612  0.09727961    -0.09680
C780        C  0.82262677  0.36369963  0.06983274     0.06510
C781        C  0.85566253  0.37092789  0.05155335    -0.03450
C782        C  0.87616037  0.40184762  0.06031685    -0.07900
C783        C  0.86443041  0.42527542  0.08783815     0.05630
C784        C  0.83158540  0.41769781  0.10644979    -0.02930
Br785      Br  0.81298767  0.44935769  0.14331063    -0.02620
H786        H  0.78556152  0.38157059  0.11153844     0.09540
H787        H  0.90138860  0.40749372  0.04591501     0.07560
Br788      Br  0.87422517  0.33865247  0.01540222    -0.03050
C789        C  0.90593804  0.50066589  0.01861397    -0.09680
C790        C  0.87457259  0.49203291  0.03861675     0.06510
C791        C  0.84246053  0.48344767  0.01941212    -0.03450
C792        C  0.84300568  0.48182089  0.98104660    -0.07900
C793        C  0.87461677  0.49090875  0.96096042     0.05630
C794        C  0.90573290  0.50246122  0.98072569    -0.02930
Br795      Br  0.94838112  0.52455887  0.95919697    -0.02620
H796        H  0.93082469  0.50753296  0.03285703     0.09540
H797        H  0.81820162  0.47475716  0.96715009     0.07560
Br798      Br  0.79686591  0.47626346  0.04383329    -0.03050
C799        C  0.07909637  0.58348449  0.13543357    -0.09680
C800        C  0.10360264  0.55619346  0.14631610     0.06510
C801        C  0.12442445  0.56127918  0.17817008    -0.03450
C802        C  0.11874062  0.59202781  0.19962151    -0.07900
C803        C  0.09427841  0.61916345  0.18866909     0.05630
C804        C  0.07535545  0.61547789  0.15564333    -0.02930
Br805      Br  0.04681029  0.65471181  0.13573203    -0.02620
H806        H  0.06406266  0.58056804  0.11043274     0.09540
H807        H  0.13440526  0.59538845  0.22430134     0.07560
Br808      Br  0.16305925  0.52886578  0.19236319    -0.03050
C809        C  0.19566781  0.56023237  0.10989361    -0.09680
C810        C  0.16176985  0.55738591  0.09246256     0.06510
C811        C  0.14911758  0.58629935  0.07051901    -0.03450
C812        C  0.17047113  0.61765637  0.06645161    -0.07900
C813        C  0.20502387  0.61967355  0.08245820     0.05630
C814        C  0.21763532  0.59092488  0.10447105    -0.02930
Br815      Br  0.26515276  0.59180397  0.12608080    -0.02620
H816        H  0.20584492  0.53771399  0.12624119     0.09540
H817        H  0.16074513  0.64008456  0.04981599     0.07560
Br818      Br  0.10469175  0.58271728  0.04333054    -0.03050
C819        C  0.09082932  0.39284949  0.12377191    -0.09680
C820        C  0.09656158  0.42486854  0.14370172     0.06510
C821        C  0.08968391  0.42407372  0.18169054    -0.03450
C822        C  0.07930527  0.39169072  0.19883706    -0.07900
C823        C  0.07670031  0.35927165  0.17953988     0.05630
C824        C  0.08153438  0.35998158  0.14147123    -0.02930
Br825      Br  0.07445587  0.31752569  0.11229215    -0.02620
H826        H  0.09493327  0.39314505  0.09459767     0.09540
H827        H  0.07558368  0.39135603  0.22808403     0.07560
Br828      Br  0.10108714  0.46313919  0.21395838    -0.03050
C829        C  0.19516522  0.42379553  0.07133591    -0.09680
C830        C  0.17059832  0.42579704  0.10079777     0.06510
C831        C  0.17467479  0.39769433  0.12732032    -0.03450
C832        C  0.19073199  0.36422009  0.11784890    -0.07900
C833        C  0.20955265  0.36052662  0.08479799     0.05630
C834        C  0.21465424  0.39232054  0.06342292    -0.02930
Br835      Br  0.24919946  0.39738287  0.02448791    -0.02620
H836        H  0.20146514  0.44695745  0.05459269     0.09540
H837        H  0.19133293  0.34218643  0.13771062     0.07560
Br838      Br  0.17444928  0.40796167  0.17822011    -0.03050
C839        C  0.03167125  0.49878873  0.16502079    -0.09680
C840        C  0.05017121  0.49129871  0.13228442     0.06510
C841        C  0.02867269  0.48432250  0.10135596    -0.03450
C842        C  0.99087202  0.48086313  0.10401882    -0.07900
C843        C  0.97238231  0.48721399  0.13664321     0.05630
C844        C  0.99321870  0.49664378  0.16747123    -0.02930
Br845      Br  0.97104328  0.50690702  0.21332355    -0.02620
H846        H  0.04680621  0.50732828  0.18855399     0.09540
H847        H  0.97534931  0.47591756  0.07950103     0.07560
Br848      Br  0.04764188  0.48664733  0.05324449    -0.03050
C849        C  0.06599854  0.61439172  0.84945557    -0.09680
C850        C  0.08356221  0.61953669  0.81576976     0.06510
C851        C  0.10759414  0.59264987  0.80318643    -0.03450
C852        C  0.11382624  0.56119286  0.82412940    -0.07900
C853        C  0.09622922  0.55567029  0.85769015     0.05630
C854        C  0.07213733  0.58267309  0.87042236    -0.02930
Br855      Br  0.04590783  0.57651627  0.91521546    -0.02620
H856        H  0.04697781  0.63475895  0.85912050     0.09540
H857        H  0.13123987  0.54008895  0.81330749     0.07560
Br858      Br  0.13136401  0.59713359  0.75686183    -0.03050
C859        C  0.20533497  0.59359355  0.89562003    -0.09680
C860        C  0.19514825  0.61869284  0.92210192     0.06510
C861        C  0.16329316  0.61222754  0.94266900    -0.03450
C862        C  0.14344886  0.57972993  0.93821324    -0.07900
C863        C  0.15392653  0.55417145  0.91197953     0.05630
C864        C  0.18457830  0.56210094  0.88973358    -0.02930
Br865      Br  0.19831470  0.53264362  0.84912711    -0.02620
H866        H  0.22902513  0.59902368  0.87873459     0.09540
H867        H  0.11933567  0.57480759  0.95458432     0.07560
Br868      Br  0.14469273  0.64845031  0.97494398    -0.03050
C869        C  0.12078583  0.41946902  0.82266650    -0.09680
C870        C  0.09790241  0.42259183  0.85329115     0.06510
C871        C  0.07115422  0.39494377  0.85924498    -0.03450
C872        C  0.06796223  0.36595796  0.83508227    -0.07900
C873        C  0.09119445  0.36278958  0.80525496     0.05630
C874        C  0.11781703  0.38975973  0.79895705    -0.02930
Br875      Br  0.15070270  0.38675111  0.75856639    -0.02620
H876        H  0.14149774  0.44002760  0.81749375     0.09540
H877        H  0.04772141  0.34488789  0.84022239     0.07560
Br878      Br  0.04003785  0.39069882  0.90073475    -0.03050
C879        C  0.21575196  0.39147813  0.91804557    -0.09680
C880        C  0.19919169  0.35731568  0.92200206     0.06510
C881        C  0.16085013  0.35534608  0.92247023    -0.03450
C882        C  0.14011845  0.38706260  0.91747781    -0.07900
C883        C  0.15633356  0.42141652  0.91160560     0.05630
C884        C  0.19503798  0.42320305  0.91295982    -0.02930
Br885      Br  0.22280030  0.46710817  0.90820000    -0.02620
H886        H  0.24523698  0.39350158  0.91888628     0.09540
H887        H  0.11107382  0.38475755  0.91950001     0.07560
Br888      Br  0.13494107  0.31109264  0.93339712    -0.03050
C889        C  0.17425308  0.50588247  0.98056451    -0.09680
C890        C  0.14603801  0.48569561  0.96435289     0.06510
C891        C  0.12332250  0.46477287  0.98786494    -0.03450
C892        C  0.12805251  0.46553600  0.02542209    -0.07900
C893        C  0.15324771  0.48867339  0.04197472     0.05630
C894        C  0.17849190  0.50698891  0.01868570    -0.02930
Br895      Br  0.22354320  0.52681704  0.03555000    -0.02620
H896        H  0.19383011  0.52017873  0.96358620     0.09540
H897        H  0.11080762  0.44821294  0.04213185     0.07560
Br898      Br  0.08242170  0.43662823  0.97250038    -0.03050
C899        C  0.02527174  0.47538965  0.89450395    -0.09680
C900        C  0.04556314  0.48901493  0.86517709     0.06510
C901        C  0.02623972  0.50509414  0.83600049    -0.03450
C902        C  0.98807547  0.50909071  0.83833231    -0.07900
C903        C  0.96770540  0.49037772  0.86533635     0.05630
C904        C  0.98742146  0.47231123  0.89322770    -0.02930
Br905      Br  0.96600145  0.44173930  0.93041141    -0.02620
H906        H  0.03925577  0.46513207  0.91815194     0.09540
H907        H  0.97410584  0.52297299  0.81636482     0.07560
Br908      Br  0.04867564  0.51597273  0.79016510    -0.03050
C909        C  0.64267111  0.89129665  0.83410065    -0.09680
C910        C  0.63994781  0.90291066  0.79785771     0.06510
C911        C  0.60688097  0.89746764  0.77916474    -0.03450
C912        C  0.57617595  0.88540430  0.79887095    -0.07900
C913        C  0.57902994  0.87797527  0.83625064     0.05630
C914        C  0.61457992  0.87029015  0.84853846    -0.02930
Br915      Br  0.63023643  0.82090800  0.84068650    -0.02620
H916        H  0.66905525  0.89081178  0.84735119     0.09540
H917        H  0.55028723  0.88274389  0.78540909     0.07560
Br918      Br  0.60282315  0.90499051  0.72760592    -0.03050
C919        C  0.60575952  0.77902670  0.91522632    -0.09680
C920        C  0.63572259  0.79641412  0.93085793     0.06510
C921        C  0.63408358  0.83399111  0.93866244    -0.03450
C922        C  0.60317876  0.85412168  0.92875304    -0.07900
C923        C  0.57488192  0.83740066  0.90946344     0.05630
C924        C  0.57590270  0.79942181  0.90335296    -0.02930
Br925      Br  0.54128979  0.77560027  0.87245708    -0.02620
H926        H  0.60701199  0.75012386  0.90926474     0.09540
H927        H  0.60205921  0.88312331  0.93422721     0.07560
Br928      Br  0.67339363  0.85880970  0.96232851    -0.03050
C929        C  0.41926109  0.85354937  0.83400799    -0.09680
C930        C  0.44781332  0.87924940  0.83277881     0.06510
C931        C  0.44631150  0.90360488  0.80312074    -0.03450
C932        C  0.41218198  0.91524237  0.79085547    -0.07900
C933        C  0.38088758  0.89434492  0.79875370     0.05630
C934        C  0.38567948  0.86090054  0.81767183    -0.02930
Br935      Br  0.35029479  0.82224358  0.81934426    -0.02620
H936        H  0.42296949  0.82707918  0.84610370     0.09540
H937        H  0.41098753  0.93704391  0.77075242     0.07560
Br938      Br  0.47720545  0.89151566  0.76321733    -0.03050
C939        C  0.44493016  0.80355223  0.90617166    -0.09680
C940        C  0.44547693  0.84181391  0.90797290     0.06510
C941        C  0.41330295  0.86038056  0.91759891    -0.03450
C942        C  0.38089645  0.84051723  0.92309297    -0.07900
C943        C  0.38055176  0.80219790  0.92019393     0.05630
C944        C  0.41315645  0.78371429  0.91270283    -0.02930
Br945      Br  0.41508643  0.73165485  0.90720466    -0.02620
H946        H  0.46872278  0.78913365  0.89674675     0.09540
H947        H  0.35597430  0.85496798  0.92953151     0.07560
Br948      Br  0.41220943  0.91251942  0.92150513    -0.03050
C949        C  0.57403433  0.92758331  0.17700699    -0.09680
C950        C  0.56884494  0.89551632  0.15678165     0.06510
C951        C  0.59204050  0.86583628  0.16598185    -0.03450
C952        C  0.62485198  0.87220896  0.18465136    -0.07900
C953        C  0.63191267  0.90631574  0.20033466     0.05630
C954        C  0.60379362  0.93236297  0.19970376    -0.02930
Br955      Br  0.60184762  0.97443893  0.22990322    -0.02620
H956        H  0.55530948  0.94979243  0.17657356     0.09540
H957        H  0.64385833  0.84991106  0.18871513     0.07560
Br958      Br  0.57648031  0.81598272  0.16287679    -0.03050
C959        C  0.57281108  0.81633095  0.07636440    -0.09680
C960        C  0.57592856  0.85394472  0.08352576     0.06510
C961        C  0.61114985  0.86960680  0.08302228    -0.03450
C962        C  0.64204368  0.84706758  0.07973140    -0.07900
C963        C  0.63861515  0.80902422  0.07519228     0.05630
C964        C  0.60340656  0.79404939  0.07207804    -0.02930
Br965      Br  0.59490693  0.74273949  0.06574575    -0.02620
H966        H  0.54637231  0.80338182  0.07698149     0.09540
H967        H  0.66886095  0.85946145  0.08040754     0.07560
Br968      Br  0.61869173  0.92134677  0.08571008    -0.03050
C969        C  0.40519160  0.88175059  0.19928844    -0.09680
C970        C  0.37518057  0.90119014  0.18592742     0.06510
C971        C  0.37612429  0.91541661  0.15022513    -0.03450
C972        C  0.40812579  0.91289520  0.12960095    -0.07900
C973        C  0.43896518  0.89511981  0.14365495     0.05630
C974        C  0.43676314  0.87798376  0.17821458    -0.02930
Br975      Br  0.47732995  0.85272450  0.19972741    -0.02620
H976        H  0.40458563  0.87064543  0.22669879     0.09540
H977        H  0.40921249  0.92551641  0.10286988     0.07560
Br978      Br  0.33474876  0.93935468  0.12899340    -0.03050
C979        C  0.41668973  0.86028012  0.05853975    -0.09680
C980        C  0.44535974  0.84768738  0.08051402     0.06510
C981        C  0.44367987  0.81189625  0.09511103    -0.03450
C982        C  0.41316744  0.78995029  0.08890331    -0.07900
C983        C  0.38391566  0.80303148  0.06830976     0.05630
C984        C  0.38601457  0.83820899  0.05241281    -0.02930
Br985      Br  0.34783832  0.85686596  0.02190831    -0.02620
H986        H  0.41790633  0.88747289  0.04670808     0.09540
H987        H  0.41208756  0.76266362  0.10057000     0.07560
Br988      Br  0.48208639  0.79160910  0.12415724    -0.03050
C989        C  0.50578742  0.82964638  0.01680312    -0.09680
C990        C  0.51163190  0.86391803  0.03266846     0.06510
C991        C  0.51763532  0.89402642  0.00920093    -0.03450
C992        C  0.51779346  0.88981023  0.97153798    -0.07900
C993        C  0.51127453  0.85602600  0.95526383     0.05630
C994        C  0.50674179  0.82519341  0.97872024    -0.02930
Br995      Br  0.50567120  0.77587561  0.96237600    -0.02620
H996        H  0.50096159  0.80601443  0.03406026     0.09540
H997        H  0.52345054  0.91352513  0.95479564     0.07560
Br998      Br  0.52371259  0.94263161  0.02614871    -0.03050
C999        C  0.59961916  0.04054554  0.86368160    -0.09680
C1000       C  0.57617270  0.07058533  0.85979401     0.06510
C1001       C  0.58397397  0.09723530  0.83283422    -0.03450
C1002       C  0.61584520  0.09470175  0.81194765    -0.07900
C1003       C  0.63977458  0.06527834  0.81665499     0.05630
C1004       C  0.63131144  0.03781772  0.84249670    -0.02930
Br1005     Br  0.66260351  0.99651543  0.85032095    -0.02620
H1006       H  0.59330182  0.01922064  0.88333306     0.09540
H1007       H  0.62162727  0.11542737  0.79148958     0.07560
Br1008     Br  0.55095920  0.13651024  0.82205379    -0.03050
C1009       C  0.57472104  0.15905080  0.90853296    -0.09680
C1010       C  0.57511000  0.12226938  0.92016761     0.06510
C1011       C  0.60747691  0.10823815  0.93552924    -0.03450
C1012       C  0.63813293  0.13103994  0.93961727    -0.07900
C1013       C  0.63712072  0.16809167  0.92898816     0.05630
C1014       C  0.60494366  0.18198994  0.91346315    -0.02930
Br1015     Br  0.60164033  0.23174658  0.89704298    -0.02620
H1016       H  0.55032395  0.17019815  0.89613880     0.09540
H1017       H  0.66286151  0.11980964  0.95126188     0.07560
Br1018     Br  0.61104792  0.05824031  0.95127413    -0.03050
C1019       C  0.41794847  0.04548696  0.79861713    -0.09680
C1020       C  0.38599901  0.06623268  0.80322296     0.06510
C1021       C  0.38880561  0.09817590  0.82432699    -0.03450
C1022       C  0.42073252  0.10467257  0.84433237    -0.07900
C1023       C  0.44879764  0.07830801  0.84668544     0.05630
C1024       C  0.45033908  0.05512451  0.81633059    -0.02930
Br1025     Br  0.48874167  0.06394248  0.78197077    -0.02620
H1026       H  0.41937183  0.02527283  0.77743252     0.09540
H1027       H  0.42306920  0.13064674  0.85746135     0.07560
Br1028     Br  0.35135997  0.13474934  0.82646433    -0.03050
C1029       C  0.44824939  0.15974105  0.92306506    -0.09680
C1030       C  0.44292411  0.12176950  0.92001627     0.06510
C1031       C  0.40677962  0.10794969  0.92305753    -0.03450
C1032       C  0.37746026  0.13226956  0.92730856    -0.07900
C1033       C  0.38316498  0.17017058  0.92938137     0.05630
C1034       C  0.41905675  0.18371002  0.92781682    -0.02930
Br1035     Br  0.42983995  0.23501631  0.92883790    -0.02620
H1036       H  0.47537877  0.17116343  0.92006020     0.09540
H1037       H  0.34995634  0.12148606  0.92873095     0.07560
Br1038     Br  0.39474169  0.05710875  0.91737737    -0.03050
C1039       C  0.52457470  0.00235720  0.83266488    -0.09680
C1040       C  0.51107004  0.01628050  0.86521060     0.06510
C1041       C  0.50314849  0.99038384  0.89268664    -0.03450
C1042       C  0.50224997  0.95282264  0.88539626    -0.07900
C1043       C  0.51263776  0.93843856  0.85161840     0.05630
C1044       C  0.52398357  0.96480587  0.82477518    -0.02930
Br1045     Br  0.53640057  0.95648039  0.77532661    -0.02620
H1046       H  0.53681705  0.02085930  0.81318373     0.09540
H1047       H  0.49462413  0.93444767  0.90714518     0.07560
Br1048     Br  0.50384994  0.00305673  0.94248361    -0.03050
C1049       C  0.61643171  0.08260722  0.13893833    -0.09680
C1050       C  0.58122928  0.08079718  0.15395673     0.06510
C1051       C  0.57915563  0.07157870  0.19172459    -0.03450
C1052       C  0.61088597  0.06748895  0.21249868    -0.07900
C1053       C  0.64550195  0.07287028  0.19752256     0.05630
C1054       C  0.64784379  0.08198919  0.16031583    -0.02930
Br1055     Br  0.69202882  0.09544305  0.13616545    -0.02620
H1056       H  0.62003138  0.08449434  0.11010600     0.09540
H1057       H  0.60845187  0.05995851  0.24097963     0.07560
Br1058     Br  0.53588564  0.06188927  0.21885674    -0.03050
C1059       C  0.63776514  0.15958725  0.06479002    -0.09680
C1060       C  0.64338472  0.18953730  0.08719030     0.06510
C1061       C  0.61894340  0.19668852  0.11566457    -0.03450
C1062       C  0.58904557  0.17345424  0.12142466    -0.07900
C1063       C  0.58283552  0.14367860  0.09841467     0.05630
C1064       C  0.60750715  0.13720919  0.06960328    -0.02930
Br1065     Br  0.60140433  0.09961981  0.03481570    -0.02620
H1066       H  0.65639889  0.15437903  0.04249690     0.09540
H1067       H  0.57007398  0.17911605  0.14327347     0.07560
Br1068     Br  0.62452294  0.23867285  0.14581025    -0.03050
C1069       C  0.41113382  0.08156294  0.20453864    -0.09680
C1070       C  0.38342771  0.06472983  0.18482156     0.06510
C1071       C  0.38838012  0.05803987  0.14746250    -0.03450
C1072       C  0.42140042  0.06728636  0.13059611    -0.07900
C1073       C  0.44895589  0.08476330  0.15019414     0.05630
C1074       C  0.44329239  0.09265634  0.18737708    -0.02930
Br1075     Br  0.47393282  0.12611564  0.21331179    -0.02620
H1076       H  0.40671114  0.08831953  0.23281667     0.09540
H1077       H  0.42524794  0.06183064  0.10195441     0.07560
Br1078     Br  0.35082276  0.03693993  0.11824425    -0.03050
C1079       C  0.41026945  0.18514034  0.06179464    -0.09680
C1080       C  0.38149884  0.18317860  0.08690033     0.06510
C1081       C  0.38919887  0.17096672  0.12241325    -0.03450
C1082       C  0.42381265  0.15718689  0.13029991    -0.07900
C1083       C  0.45097442  0.15347802  0.10344176     0.05630
C1084       C  0.44552298  0.17507429  0.07192962    -0.02930
Br1085     Br  0.47866622  0.21373718  0.06142003    -0.02620
H1086       H  0.40657609  0.19965756  0.03624247     0.09540
H1087       H  0.42957394  0.15135268  0.15810818     0.07560
Br1088     Br  0.35574161  0.17537562  0.16233746    -0.03050
C1089       C  0.48951347  0.01337165  0.16204841    -0.09680
C1090       C  0.51206612  0.03204739  0.13678266     0.06510
C1091       C  0.53161056  0.00993030  0.11211597    -0.03450
C1092       C  0.52793189  0.97195197  0.11261833    -0.07900
C1093       C  0.50472015  0.95333414  0.13679639     0.05630
C1094       C  0.48646029  0.97493435  0.16298305    -0.02930
Br1095     Br  0.46318488  0.95523106  0.20529053    -0.02620
H1096       H  0.47559636  0.02827647  0.18298828     0.09540
H1097       H  0.54491944  0.95647365  0.09453321     0.07560
Br1098     Br  0.56343548  0.02816550  0.07527275    -0.03050
C1099       C  0.49158685  0.10269790  0.03433501    -0.09680
C1100       C  0.51342856  0.13122469  0.04712748     0.06510
C1101       C  0.53043150  0.15415484  0.02043809    -0.03450
C1102       C  0.52604345  0.14676577  0.98319039    -0.07900
C1103       C  0.50654627  0.11623800  0.97061223     0.05630
C1104       C  0.48724827  0.09569493  0.99739047    -0.02930
Br1105     Br  0.45254057  0.05830147  0.98808159    -0.02620
H1106       H  0.47757118  0.08500719  0.05360378     0.09540
H1107       H  0.53752214  0.16595832  0.96414310     0.07560
Br1108     Br  0.55956083  0.19668828  0.03046185    -0.03050
C1109       C  0.92379184  0.85875965  0.59529874    -0.09680
C1110       C  0.91383277  0.83777815  0.56525487     0.06510
C1111       C  0.90988119  0.79952033  0.56947264    -0.03450
C1112       C  0.91822187  0.78291347  0.60254462    -0.07900
C1113       C  0.92747086  0.80386571  0.63255393     0.05630
C1114       C  0.92940035  0.84224807  0.62919616    -0.02930
Br1115     Br  0.93926932  0.87358879  0.66948072    -0.02620
H1116       H  0.92602465  0.88818811  0.59259389     0.09540
H1117       H  0.91565846  0.75351453  0.60537527     0.07560
Br1118     Br  0.88888593  0.76838953  0.53324426    -0.03050
C1119       C  0.84831917  0.92946795  0.57091143    -0.09680
C1120       C  0.85289435  0.89264202  0.56163277     0.06510
C1121       C  0.83297509  0.86655168  0.58261414    -0.03450
C1122       C  0.81482700  0.87703117  0.61445752    -0.07900
C1123       C  0.80943439  0.91394898  0.62205458     0.05630
C1124       C  0.82338241  0.93998380  0.59731531    -0.02930
Br1125     Br  0.80598698  0.98880359  0.59311250    -0.02620
H1126       H  0.86285169  0.95100028  0.55724350     0.09540
H1127       H  0.80201809  0.85641728  0.63157925     0.07560
Br1128     Br  0.82207877  0.81856174  0.56644269    -0.03050
C1129       C  0.87572110  0.89760746  0.39806918    -0.09680
C1130       C  0.85750416  0.88579600  0.42960653     0.06510
C1131       C  0.82019893  0.87637532  0.42765985    -0.03450
C1132       C  0.80148965  0.88087188  0.39494173    -0.07900
C1133       C  0.81983402  0.89236704  0.36346660     0.05630
C1134       C  0.85755057  0.89966010  0.36483941    -0.02930
Br1135     Br  0.88566221  0.91288184  0.32263539    -0.02620
H1136       H  0.90435683  0.90471723  0.39921262     0.09540
H1137       H  0.77252135  0.87505906  0.39396327     0.07560
Br1138     Br  0.79347466  0.85636769  0.46835699    -0.03050
C1139       C  0.94594120  0.84279629  0.41092854    -0.09680
C1140       C  0.91661756  0.83195088  0.43313923     0.06510
C1141       C  0.89484203  0.80206720  0.42243449    -0.03450
C1142       C  0.90297852  0.78331289  0.39064849    -0.07900
C1143       C  0.93226570  0.79409970  0.36885522     0.05630
C1144       C  0.95368551  0.82423149  0.37883642    -0.02930
Br1145     Br  0.99247550  0.84198675  0.34850754    -0.02620
H1146       H  0.96198287  0.86655549  0.41766867     0.09540
H1147       H  0.88643025  0.76010936  0.38294789     0.07560
Br1148     Br  0.85314170  0.78564134  0.44919204    -0.03050
C1149       C  0.89389334  0.13981485  0.59398977    -0.09680
C1150       C  0.91862327  0.13909979  0.56442369     0.06510
C1151       C  0.94460300  0.16807324  0.56454167    -0.03450
C1152       C  0.95337313  0.18548424  0.59678635    -0.07900
C1153       C  0.93144440  0.18196509  0.62764226     0.05630
C1154       C  0.89976641  0.16064924  0.62507323    -0.02930
Br1155     Br  0.86139360  0.16179362  0.66068742    -0.02020
H1156       H  0.86776230  0.12732219  0.59270025     0.09540
H1157       H  0.97473560  0.20562635  0.59601952     0.07560
Br1158     Br  0.95380453  0.20002332  0.52398602    -0.03050
C1159       C  0.85998961  0.05346729  0.63048960    -0.09680
C1160       C  0.82471327  0.06835204  0.62988972     0.06510
C1161       C  0.81015394  0.07990880  0.59630112    -0.03450
C1162       C  0.83182602  0.07926110  0.56474828    -0.07900
C1163       C  0.86855345  0.06787990  0.56598973     0.05630
C1164       C  0.88129338  0.05187833  0.59870946    -0.02930
Br1165     Br  0.92383894  0.02202446  0.60056655    -0.02620
H1166       H  0.87027066  0.04131082  0.65540993     0.09540
H1167       H  0.82082824  0.09049479  0.53990424     0.07560
Br1168     Br  0.76141066  0.09840485  0.59262785    -0.03050
C1169       C  0.94514891  0.11340067  0.40468619    -0.09680
C1170       C  0.92585137  0.12815580  0.43411372     0.06510
C1171       C  0.91037277  0.16333086  0.43018342    -0.03450
C1172       C  0.91523978  0.18333897  0.39786786    -0.07900
C1173       C  0.93404672  0.16839589  0.36842705     0.05630
C1174       C  0.94877850  0.13294404  0.37183461    -0.02930
Br1175     Br  0.97415790  0.11020032  0.33244620    -0.02620
H1176       H  0.95719226  0.08650314  0.40720970     0.09540
H1177       H  0.90350820  0.21040596  0.39539826     0.07560
Br1178     Br  0.88106010  0.18497856  0.46735569    -0.03050
C1179       C  0.81623889  0.07441259  0.40199614    -0.09680
C1180       C  0.83057750  0.05264851  0.37454513     0.06510
C1181       C  0.86620603  0.03869393  0.37789724    -0.03450
C1182       C  0.88680807  0.04624222  0.40894859    -0.07900
C1183       C  0.87267564  0.06869040  0.43620921     0.05630
C1184       C  0.83706042  0.08281838  0.43247459    -0.02930
Br1185     Br  0.81541079  0.11418044  0.46772364    -0.02620
H1186       H  0.78890756  0.08537610  0.39944069     0.09540
H1187       H  0.91394845  0.03490757  0.41169240     0.07560
Br1188     Br  0.88775011  0.00961702  0.34063764    -0.03050
C1189       C  0.84691642  0.00375822  0.49190667    -0.09680
C1190       C  0.88123052  0.01843087  0.50052063     0.06510
C1191       C  0.91111638  0.99431079  0.50277469    -0.03450
C1192       C  0.90606169  0.95661904  0.49957928    -0.07900
C1193       C  0.87172398  0.94133242  0.49227175     0.05630
C1194       C  0.84200597  0.96575637  0.48732568    -0.02930
Br1195     Br  0.79404547  0.94985898  0.47529522    -0.02620
H1196       H  0.82392456  0.02198384  0.48834185     0.09540
H1197       H  0.92917995  0.93891907  0.50396650     0.07560
Br1198     Br  0.96023183  0.01128875  0.50806152    -0.03050
C1199       C  0.14056643  0.07323192  0.59409555    -0.09680
C1200       C  0.16033460  0.07781220  0.56155254     0.06510
C1201       C  0.19850620  0.07144864  0.56211413    -0.03450
C1202       C  0.21589869  0.06242148  0.59449684    -0.07900
C1203       C  0.19675398  0.06071546  0.62722347     0.05630
C1204       C  0.15855116  0.06547948  0.62696746    -0.02930
Br1205     Br  0.12953416  0.06043229  0.67007862    -0.02620
H1206       H  0.11127880  0.07712255  0.59415270     0.09540
H1207       H  0.24523883  0.05873272  0.59442416     0.07560
Br1208     Br  0.23071818  0.08167038  0.52231511    -0.03050
C1209       C  0.08708378  0.17695801  0.55920261    -0.09680
C1210       C  0.11615930  0.15152466  0.55815733     0.06510
C1211       C  0.14233287  0.15609206  0.58608984    -0.03450
C1212       C  0.13240476  0.17261035  0.61905374    -0.07900
C1213       C  0.09960844  0.19217700  0.62217808     0.05630
C1214       C  0.07933142  0.19765968  0.59006463    -0.02930
Br1215     Br  0.04393076  0.23576894  0.58416198    -0.02620
H1216       H  0.07084255  0.18288868  0.53566990     0.09540
H1217       H  0.15197167  0.17315602  0.64103134     0.07560
Br1218     Br  0.19351110  0.15659530  0.57564110    -0.03050
C1219       C  0.12523500  0.16825594  0.41945358    -0.09680
C1220       C  0.10550583  0.13612665  0.42696816     0.06510
C1221       C  0.07964159  0.12375771  0.40164451    -0.03450
C1222       C  0.07314046  0.14426423  0.36995324    -0.07900
C1223       C  0.09228571  0.17685225  0.36308161     0.05630
C1224       C  0.11884718  0.18855128  0.38775243    -0.02930
Br1225     Br  0.14543338  0.23312683  0.38018685    -0.02620
H1226       H  0.14452096  0.17847096  0.43908464     0.09540
H1227       H  0.05243959  0.13532270  0.35108661     0.07560
Br1228     Br  0.05072961  0.08087528  0.41056422    -0.03050
C1229       C  0.14642139  0.05560134  0.40262440    -0.09680
C1230       C  0.15988166  0.07911746  0.42931821     0.06510
C1231       C  0.19217087  0.09910461  0.42202594    -0.03450
C1232       C  0.21187606  0.09308662  0.39011077    -0.07900
C1233       C  0.19879831  0.06921556  0.36384370     0.05630
C1234       C  0.16496612  0.05154997  0.36946314    -0.02930
Br1235     Br  0.14455539  0.01964014  0.33372929    -0.02620
H1236       H  0.12122546  0.04085528  0.40732363     0.09540
H1237       H  0.23711616  0.10782489  0.38535223     0.07560
Br1238     Br  0.20913186  0.13754404  0.45270252    -0.03050
C1239       C  0.04032277  0.10996704  0.52568322    -0.09680
C1240       C  0.05698417  0.13086340  0.49814650     0.06510
C1241       C  0.03368335  0.15202682  0.47584756    -0.03450
C1242       C  0.99591324  0.14552261  0.47603309    -0.07900
C1243       C  0.97896985  0.12241104  0.50215447     0.05630
C1244       C  0.00244229  0.10644291  0.52860891    -0.02930
Br1245     Br  0.98707295  0.07984257  0.57068932    -0.02620
H1246       H  0.05709177  0.09599881  0.54561242     0.09540
H1247       H  0.97959813  0.16235591  0.45826637     0.07560
Br1248     Br  0.04912472  0.19675897  0.45308791    -0.03050
C1249       C  0.07187141  0.85703149  0.59320496    -0.09680
C1250       C  0.09650223  0.84432993  0.56694529     0.06510
C1251       C  0.11579167  0.81158145  0.57411064    -0.03450
C1252       C  0.10909467  0.79147991  0.60594302    -0.07900
C1253       C  0.08460008  0.80412049  0.63199863     0.05630
C1254       C  0.06642551  0.83751296  0.62587186    -0.02930
Br1255     Br  0.03514186  0.85785609  0.66207250    -0.02620
H1256       H  0.05763674  0.88258796  0.58869333     0.09540
H1257       H  0.12344312  0.76599161  0.61058893     0.07560
Br1258     Br  0.15282463  0.79323343  0.54252662    -0.03050
C1259       C  0.14084158  0.91557285  0.59579600    -0.09680
C1260       C  0.15679439  0.89742164  0.56641051     0.06510
C1261       C  0.19328579  0.88536143  0.56908065    -0.03450
C1262       C  0.21277223  0.89084531  0.60110629    -0.07900
C1263       C  0.19640914  0.90786338  0.63077819     0.05630
C1264       C  0.16032369  0.92076580  0.62794635    -0.02930
Br1265     Br  0.13709187  0.94700546  0.66649900    -0.02620
H1266       H  0.11320743  0.92578495  0.59364407     0.09540
H1267       H  0.24067807  0.88130487  0.60306020     0.07560
Br1268     Br  0.21776979  0.86014632  0.53058518    -0.03050
C1269       C  0.08308796  0.78969402  0.40134494    -0.09680
C1270       C  0.08433609  0.80805299  0.36798901     0.06510
C1271       C  0.08771775  0.84657714  0.36774537    -0.03450
C1272       C  0.09096129  0.86537864  0.40063832    -0.07900
C1273       C  0.09303594  0.84660624  0.43413532     0.05630
C1274       C  0.08806243  0.80809755  0.43395973    -0.02930
Br1275     Br  0.09266638  0.77676921  0.47547689    -0.02620
H1276       H  0.08010745  0.76022070  0.40194796     0.09540
H1277       H  0.09332775  0.89486603  0.39988246     0.07560
Br1278     Br  0.08667814  0.87570773  0.32414222    -0.03050
C1279       C  0.16466543  0.93210095  0.42166945    -0.09680
C1280       C  0.15872069  0.89664462  0.43483878     0.06510
C1281       C  0.17781567  0.86764979  0.41798929    -0.03450
C1282       C  0.19894307  0.87453559  0.38670145    -0.07900
C1283       C  0.20665435  0.91050250  0.37563657     0.05630
C1284       C  0.19193116  0.93918980  0.39624323    -0.02930
Br1285     Br  0.21324442  0.98652064  0.39872447    -0.02620
H1286       H  0.15027515  0.95497287  0.43312893     0.09540
H1287       H  0.21142223  0.85194497  0.37252950     0.07560
Br1288     Br  0.17936599  0.81918485  0.43813514    -0.03050
C1289       C  0.11635835  0.96962283  0.50727972    -0.09680
C1290       C  0.14858975  0.94984712  0.50219629     0.06510
C1291       C  0.18113610  0.96997129  0.49634490    -0.03450
C1292       C  0.18009551  0.00859849  0.49328363    -0.07900
C1293       C  0.14734410  0.02828718  0.49791838     0.05630
C1294       C  0.11530546  0.00773617  0.50435945    -0.02930
Br1295     Br  0.06805928  0.02932143  0.50577329    -0.02620
H1296       H  0.09125968  0.95502988  0.51270698     0.09540
H1297       H  0.20489997  0.02286891  0.48635721     0.07560
Br1298     Br  0.22736704  0.94643075  0.49127433    -0.03050
C1299       C  0.98333211  0.88012663  0.48630193    -0.09680
C1300       C  0.96629985  0.84811168  0.49931906     0.06510
C1301       C  0.98964472  0.81965070  0.51181725    -0.03450
C1302       C  0.02747258  0.82545597  0.51498247    -0.07900
C1303       C  0.04420681  0.85697187  0.50081121     0.05630
C1304       C  0.02134190  0.88420699  0.48561038    -0.02930
Br1305     Br  0.03970049  0.92808292  0.46324488    -0.02620
H1306       H  0.96689976  0.90183061  0.47484848     0.09540
H1307       H  0.04414184  0.80397329  0.52653424     0.07560
Br1308     Br  0.97550826  0.76985035  0.51675535    -0.03050
loop_ 
_geom_bond_atom_site_label_1 
_geom_bond_atom_site_label_2 
_geom_bond_distance 
_geom_bond_site_symmetry_2 
_ccdc_geom_bond_type 
C1            C2   1.419       .  A
C1            C6   1.420       .  A
C1         C1250   1.492       .  S
C2            C3   1.421       .  A
C2         C1303   1.508       .  S
C3            C4   1.436       .  A
C3         C1273   1.508       .  S
C4            C5   1.427       .  A
C4         C1280   1.497       .  S
C5            C6   1.407       .  A
C5         C1290   1.512       .  S
C6         C1260   1.481       .  S
C7            C8   1.411       .  A
C7           C12   1.413       .  A
C7         C1230   1.487       .  S
C8            C9   1.431       .  A
C8         C1293   1.518       .  S
C9           C10   1.454       .  A
C9         C1200   1.494       .  S
C10          C11   1.435       .  A
C10        C1210   1.543       .  S
C11          C12   1.415       .  A
C11        C1240   1.517       .  S
C12        C1220   1.482       .  S
C13          C14   1.424       .  A
C13          C18   1.412       .  A
C13        C1170   1.494       .  S
C14          C15   1.438       .  A
C14        C1243   1.531       .  S
C15          C16   1.463       .  A
C15        C1150   1.544       .  S
C16          C17   1.424       .  A
C16        C1163   1.504       .  S
C17          C18   1.405       .  A
C17        C1190   1.501       .  S
C18        C1183   1.484       .  S
C19          C20   1.412       .  A
C19          C24   1.421       .  A
C19        C1140   1.484       .  S
C20          C21   1.424       .  A
C20        C1300   1.521       .  S
C21          C22   1.437       .  A
C21        C1110   1.475       .  S
C22          C23   1.424       .  A
C22        C1120   1.514       .  S
C23          C24   1.411       .  A
C23        C1193   1.510       .  S
C24        C1130   1.478       .  S
C25          C26   1.430       .  A
C25          C30   1.443       .  A
C25        C1083   1.533       .  S
C26          C27   1.423       .  A
C26        C1100   1.518       .  S
C27          C28   1.443       .  A
C27        C1063   1.482       .  S
C28          C29   1.417       .  A
C28        C1050   1.526       .  S
C29          C30   1.428       .  A
C29        C1090   1.530       .  S
C30        C1073   1.479       .  S
C31          C32   1.437       .  A
C31          C36   1.454       .  A
C31        C1030   1.504       .  S
C32          C33   1.432       .  A
C32        C1103   1.529       .  S
C33          C34   1.422       .  A
C33        C1010   1.502       .  S
C34          C35   1.408       .  A
C34        C1000   1.490       .  S
C35          C36   1.434       .  A
C35        C1040   1.518       .  S
C36        C1023   1.543       .  S
C37          C38   1.414       .  A
C37          C42   1.417       .  A
C37         C973   1.483       .  S
C38          C39   1.433       .  A
C38        C1093   1.521       .  S
C39          C40   1.448       .  A
C39         C950   1.522       .  S
C40          C41   1.428       .  A
C40         C960   1.505       .  S
C41          C42   1.410       .  A
C41         C990   1.506       .  S
C42         C980   1.488       .  S
C43          C44   1.433       .  A
C43          C48   1.446       .  A
C43         C930   1.519       .  S
C44          C45   1.434       .  A
C44        C1043   1.535       .  S
C45          C46   1.437       .  A
C45         C913   1.515       .  S
C46          C47   1.407       .  A
C46         C923   1.474       .  S
C47          C48   1.415       .  A
C47         C993   1.514       .  S
C48         C940   1.485       .  S
C49          C50   1.430       .  A
C49          C54   1.437       .  A
C49         C870   1.503       .  S
C50          C51   1.418       .  A
C50         C900   1.500       .  S
C51          C52   1.418       .  A
C51         C853   1.491       .  S
C52          C53   1.422       .  A
C52         C863   1.494       .  S
C53          C54   1.422       .  A
C53         C890   1.513       .  S
C54         C883   1.512       .  S
C55          C56   1.410       .  A
C55          C60   1.414       .  A
C55         C810   1.470       .  S
C56          C57   1.433       .  A
C56         C893   1.521       .  S
C57          C58   1.450       .  A
C57         C830   1.532       .  S
C58          C59   1.426       .  A
C58         C820   1.491       .  S
C59          C60   1.404       .  A
C59         C840   1.512       .  S
C60         C800   1.484       .  S
C61          C62   1.415       .  A
C61          C66   1.421       .  A
C61         C750   1.478       .  S
C62          C63   1.415       .  A
C62         C843   1.499       .  S
C63          C64   1.421       .  A
C63         C773   1.494       .  S
C64          C65   1.414       .  A
C64         C783   1.478       .  S
C65          C66   1.414       .  A
C65         C790   1.498       .  S
C66         C763   1.492       .  S
C67          C68   1.415       .  A
C67          C72   1.409       .  A
C67         C720   1.492       .  S
C68          C69   1.410       .  A
C68         C710   1.475       .  S
C69          C70   1.419       .  A
C69         C903   1.508       .  S
C70          C71   1.448       .  A
C70         C730   1.526       .  S
C71          C72   1.431       .  A
C71         C740   1.496       .  S
C72         C793   1.509       .  S
C73         C110   1.469       .  S
C73         C600   1.464       .  S
C73          N91   1.341       .  A
N74          N91   1.314       .  A
N74          N96   1.319       .  A
N74        Co111   2.067       .  S
C75         C113   1.456       .  S
C75         N100   1.329       .  A
C75         H120   1.080       .  S
H76         C117   1.082       .  S
C77          C81   1.451       .  S
C77         N101   1.337       .  A
C77         H106   1.080       .  S
Co78         N96   2.094       .  S
Co78         N86   2.088   1_565  S
Co78        N118   2.083       .  S
Co78         N94   2.093   1_565  S
Co78       Cl122   2.498       .  S
N79         C117   1.330       .  A
N79          N86   1.320       .  A
N79         Co80   2.073       .  S
Co80         N83   2.088       .  S
Co80        N100   2.075       .  S
Co80         N87   2.102       .  S
Co80       Cl122   2.405   1_545  S
C81        C1203   1.473       .  S
C81         N119   1.350       .  A
N82          N89   1.317       .  A
N82         N112   1.323       .  A
N82        Co115   2.080       .  S
N83         N101   1.318       .  A
N83         N119   1.328       .  A
N84         C113   1.353       .  A
N84          N94   1.330       .  A
H85         C110   1.081       .  S
N86         N107   1.329       .  A
N87         N105   1.317       .  A
N87          N92   1.328       .  A
C88         C116   1.464       .  S
C88        C1020   1.496       .  S
C88          N92   1.354       .  A
N89         C104   1.340       .  A
N89        Co111   2.078       .  S
C90          C93   1.464       .  S
C90         N118   1.347       .  A
C90         H124   1.081       .  S
C93         C240   1.455       .  S
C93         N114   1.343       .  A
N94         N100   1.320       .  A
N95         C121   1.337       .  A
N95          N97   1.315       .  A
N95        Co111   2.075       .  S
N96         C110   1.351       .  A
N97         N125   1.322       .  A
N97        Co115   2.072       .  S
H98         C121   1.078       .  S
H99         C116   1.080       .  S
N101       Co115   2.071   1_545  S
N102        N114   1.314       .  A
N102        N118   1.319       .  A
N102       Co111   2.069       .  S
C103        C117   1.450       .  S
C103        C126   1.461       .  S
C103        N107   1.354       .  A
C104        C123   1.455       .  S
C104        H108   1.081       .  S
N105        C116   1.341       .  A
N105       Co115   2.078   1_545  S
C109        C121   1.462       .  S
C109        C933   1.479       .  S
C109        N125   1.351       .  A
Co111      Cl122   2.399       .  S
N112        C123   1.346       .  A
C113        C421   1.469       .  S
Co115      Cl122   2.481       .  S
C123       C1263   1.465       .  S
C126        C163   1.463       .  S
C126        N144   1.344       .  A
N127        N144   1.317       .  A
N127        N149   1.321       .  A
N127       Co164   2.077       .  S
C128        C166   1.450       .  S
C128        N153   1.330       .  A
C128        H173   1.082       .  S
H129        C170   1.082       .  S
C130        C134   1.460       .  S
C130        N154   1.333       .  A
C130        H159   1.078       .  S
Co131       N149   2.089       .  S
Co131       N139   2.098   1_455  S
Co131       N171   2.092       .  S
Co131       N147   2.104   1_455  S
Co131      Cl175   2.497       .  S
N132        C170   1.328       .  A
N132        N139   1.319       .  A
N132       Co133   2.065       .  S
Co133       N136   2.075       .  S
Co133       N153   2.070       .  S
Co133       N140   2.073       .  S
Co133      Cl175   2.412   1_655  S
C134       C1153   1.479       .  S
C134        N172   1.350       .  A
N135        N142   1.317       .  A
N135        N165   1.326       .  A
N135       Co168   2.097       .  S
N136        N154   1.315       .  A
N136        N172   1.324       .  A
N137        C166   1.357       .  A
N137        N147   1.333       .  A
H138        C163   1.081       .  S
N139        N160   1.331       .  A
N140        N158   1.318       .  A
N140        N145   1.326       .  A
C141        C169   1.462       .  S
C141        C733   1.476       .  S
C141        N145   1.347       .  A
N142        C157   1.345       .  A
N142       Co164   2.094       .  S
C143        C146   1.465       .  S
C143        N171   1.348       .  A
C143        H177   1.081       .  S
C146        C431   1.461       .  S
C146        N167   1.343       .  A
N147        N153   1.320       .  A
N148        C174   1.343       .  A
N148        N150   1.317       .  A
N148       Co164   2.092       .  S
N149        C163   1.347       .  A
N150        N178   1.325       .  A
N150       Co168   2.083       .  S
H151        C174   1.081       .  S
H152        C169   1.081       .  S
N154       Co168   2.065   1_655  S
N155        N167   1.316       .  A
N155        N171   1.322       .  A
N155       Co164   2.077       .  S
C156        C170   1.450       .  S
C156        C603   1.464       .  S
C156        N160   1.356       .  A
C157        C176   1.467       .  S
C157        H161   1.081       .  S
N158        C169   1.335       .  A
N158       Co168   2.081   1_655  S
C162        C174   1.463       .  S
C162        C873   1.474       .  S
C162        N178   1.351       .  A
Co164      Cl175   2.415       .  S
N165        C176   1.353       .  A
C166        C512   1.470       .  S
Co168      Cl175   2.472       .  S
C176       C1213   1.498       .  S
C179        C216   1.469       .  S
C179        C388   1.462       .  S
C179        N197   1.339       .  A
N180        N197   1.313       .  A
N180        N202   1.319       .  A
N180       Co217   2.062       .  S
C181        C219   1.455       .  S
C181        N206   1.332       .  A
C181        H226   1.082       .  S
H182        C223   1.082       .  S
C183        C187   1.449       .  S
C183        N207   1.337       .  A
C183        H212   1.081       .  S
Co184       N202   2.094       .  S
Co184       N192   2.096   1_455  S
Co184       N224   2.100       .  S
Co184       N200   2.096   1_455  S
Co184      Cl228   2.495       .  S
N185        C223   1.330       .  A
N185        N192   1.320       .  A
N185       Co186   2.068       .  S
Co186       N189   2.085       .  S
Co186       N206   2.081       .  S
Co186       N193   2.083       .  S
Co186      Cl228   2.411   1_655  S
C187       C1143   1.461       .  S
C187        N225   1.349       .  A
N188        N195   1.317       .  A
N188        N218   1.325       .  A
N188       Co221   2.092       .  S
N189        N207   1.317       .  A
N189        N225   1.325       .  A
N190        C219   1.354       .  A
N190        N200   1.331       .  A
H191        C216   1.081       .  S
N192        N213   1.330       .  A
N193        N211   1.318       .  A
N193        N198   1.324       .  A
C194        C222   1.458       .  S
C194        C753   1.465       .  S
C194        N198   1.348       .  A
N195        C210   1.343       .  A
N195       Co217   2.077       .  S
C196        C199   1.468       .  S
C196        N224   1.349       .  A
C196        H230   1.081       .  S
C199        C268   1.461       .  S
C199        N220   1.340       .  A
N200        N206   1.321       .  A
N201        C227   1.341       .  A
N201        N203   1.316       .  A
N201       Co217   2.077       .  S
N202        C216   1.351       .  A
N203        N231   1.325       .  A
N203       Co221   2.081       .  S
H204        C227   1.081       .  S
H205        C222   1.081       .  S
N207       Co221   2.065   1_655  S
N208        N220   1.315       .  A
N208        N224   1.321       .  A
N208       Co217   2.065       .  S
C209        C223   1.449       .  S
C209        C452   1.461       .  S
C209        N213   1.355       .  A
C210        C229   1.455       .  S
C210        H214   1.079       .  S
N211        C222   1.340       .  A
N211       Co221   2.082   1_655  S
C215        C227   1.455       .  S
C215        C803   1.468       .  S
C215        N231   1.349       .  A
Co217      Cl228   2.413       .  S
N218        C229   1.351       .  A
C219        C676   1.469       .  S
Co221      Cl228   2.471       .  S
C229       C1270   1.482       .  S
C232        C269   1.454       .  S
C232        C983   1.473       .  S
C232        N250   1.350       .  A
N233        N250   1.326       .  A
N233        N255   1.319       .  A
N233       Co270   2.094       .  S
C234        C272   1.458       .  S
C234        N259   1.344       .  A
C234        H279   1.081       .  S
H235        C276   1.080       .  S
C236        C240   1.463       .  S
C236        N260   1.347       .  A
C236        H265   1.081       .  S
Co237       N255   2.083   1_556  S
Co237       N245   2.074       .  S
Co237       N277   2.071   1_556  S
Co237       N253   2.089       .  S
Co237      Cl281   2.481       .  S
N238        C276   1.344       .  A
N238        N245   1.317       .  A
N238       Co239   2.082       .  S
Co239       N242   2.076       .  S
Co239       N259   2.094       .  S
Co239       N246   2.071       .  S
Co239      Cl281   2.403       .  S
C240        N278   1.342       .  A
N241        N248   1.318       .  A
N241        N271   1.332       .  A
N241       Co274   2.101       .  S
N242        N260   1.320       .  A
N242        N278   1.314       .  A
N243        C272   1.350       .  A
N243        N253   1.327       .  A
H244        C269   1.080       .  S
N245        N266   1.323       .  A
N246        N264   1.320       .  A
N246        N251   1.316       .  A
C247        C275   1.469       .  S
C247        C586   1.468       .  S
C247        N251   1.343       .  A
N248        C263   1.326       .  A
N248       Co270   2.055       .  S
C249        C252   1.456       .  S
C249        N277   1.339       .  A
C249        H283   1.081       .  S
C252        C813   1.457       .  S
C252        N273   1.346       .  A
N253        N259   1.319       .  A
N254        C280   1.332       .  A
N254        N256   1.321       .  A
N254       Co270   2.087       .  S
N255        C269   1.342       .  A
N256        N284   1.328       .  A
N256       Co274   2.080       .  S
H257        C280   1.082       .  S
H258        C275   1.081       .  S
N260       Co274   2.080   1_556  S
N261        N273   1.322       .  A
N261        N277   1.316       .  A
N261       Co270   2.071       .  S
C262        C276   1.456       .  S
C262        C943   1.471       .  S
C262        N266   1.345       .  A
C263        C282   1.448       .  S
C263        H267   1.081       .  S
N264        C275   1.351       .  A
N264       Co274   2.101   1_556  S
C268        C280   1.456       .  S
C268        N284   1.351       .  A
Co270      Cl281   2.401   1_554  S
N271        C282   1.358       .  A
C272        C860   1.477       .  S
Co274      Cl281   2.499   1_554  S
C282        C374   1.467       .  S
C285        C322   1.454       .  S
C285       C1223   1.467       .  S
C285        N303   1.348       .  A
N286        N303   1.326       .  A
N286        N308   1.318       .  A
N286       Co323   2.087       .  S
C287        C325   1.462       .  S
C287        N312   1.346       .  A
C287        H332   1.080       .  S
H288        C329   1.080       .  S
C289        C293   1.465       .  S
C289        N313   1.349       .  A
C289        H318   1.081       .  S
Co290       N308   2.076       .  S
Co290       N298   2.087   1_455  S
Co290       N330   2.079       .  S
Co290       N306   2.085   1_455  S
Co290      Cl334   2.482       .  S
N291        C329   1.344       .  A
N291        N298   1.319       .  A
N291       Co292   2.097       .  S
Co292       N295   2.073       .  S
Co292       N312   2.096       .  S
Co292       N299   2.078       .  S
Co292      Cl334   2.406   1_655  S
C293        C494   1.463       .  S
C293        N331   1.343       .  A
N294        N301   1.321       .  A
N294        N324   1.329       .  A
N294       Co327   2.092       .  S
N295        N313   1.319       .  A
N295        N331   1.314       .  A
N296        C325   1.347       .  A
N296        N306   1.325       .  A
H297        C322   1.081       .  S
N298        N319   1.327       .  A
N299        N317   1.321       .  A
N299        N304   1.316       .  A
C300        C328   1.463       .  S
C300        C533   1.460       .  S
C300        N304   1.343       .  A
N301        C316   1.330       .  A
N301       Co323   2.072       .  S
C302        C305   1.452       .  S
C302        N330   1.339       .  A
C302        H336   1.080       .  S
C305        C823   1.470       .  S
C305        N326   1.347       .  A
N306        N312   1.317       .  A
N307        C333   1.330       .  A
N307        N309   1.318       .  A
N307       Co323   2.071       .  S
N308        C322   1.341       .  A
N309        N337   1.331       .  A
N309       Co327   2.092       .  S
H310        C333   1.082       .  S
H311        C328   1.081       .  S
N313       Co327   2.087   1_655  S
N314        N326   1.326       .  A
N314        N330   1.319       .  A
N314       Co323   2.081       .  S
C315        C329   1.459       .  S
C315       C1173   1.478       .  S
C315        N319   1.350       .  A
C316        C335   1.451       .  S
C316        H320   1.082       .  S
N317        C328   1.348       .  A
N317       Co327   2.085   1_655  S
C321        C333   1.452       .  S
C321        C411   1.467       .  S
C321        N337   1.355       .  A
Co323      Cl334   2.406       .  S
N324        C335   1.353       .  A
C325        C770   1.481       .  S
Co327      Cl334   2.497       .  S
C335        C346   1.460       .  S
C338        C375   1.459       .  S
C338       C1283   1.484       .  S
C338        N356   1.357       .  A
N339        N356   1.328       .  A
N339        N361   1.316       .  A
N339       Co376   2.099       .  S
C340        C378   1.452       .  S
C340        N365   1.340       .  A
C340        H385   1.081       .  S
H341        C382   1.080       .  S
C342        C346   1.463       .  S
C342        N366   1.347       .  A
C342        H371   1.081       .  S
Co343       N361   2.069       .  S
Co343       N351   2.098   1_565  S
Co343       N383   2.083       .  S
Co343       N359   2.080   1_565  S
Co343      Cl387   2.475       .  S
N344        C382   1.341       .  A
N344        N351   1.319       .  A
N344       Co345   2.076       .  S
Co345       N348   2.075       .  S
Co345       N365   2.074       .  S
Co345       N352   2.066       .  S
Co345      Cl387   2.410   1_545  S
C346        N384   1.343       .  A
N347        N354   1.320       .  A
N347        N377   1.329       .  A
N347       Co380   2.086       .  S
N348        N366   1.319       .  A
N348        N384   1.317       .  A
N349        C378   1.348       .  A
N349        N359   1.325       .  A
H350        C375   1.080       .  S
N351        N372   1.326       .  A
N352        N370   1.319       .  A
N352        N357   1.315       .  A
C353        C381   1.467       .  S
C353        C391   1.459       .  S
C353        N357   1.342       .  A
N354        C369   1.329       .  A
N354       Co376   2.075       .  S
C355        C358   1.458       .  S
C355        N383   1.341       .  A
C355        H389   1.081       .  S
C358        C970   1.469       .  S
C358        N379   1.348       .  A
N359        N365   1.318       .  A
N360        C386   1.329       .  A
N360        N362   1.320       .  A
N360       Co376   2.080       .  S
N361        C375   1.335       .  A
N362        N390   1.331       .  A
N362       Co380   2.084       .  S
H363        C386   1.080       .  S
H364        C381   1.081       .  S
N366       Co380   2.083   1_545  S
N367        N379   1.325       .  A
N367        N383   1.319       .  A
N367       Co376   2.089       .  S
C368        C382   1.451       .  S
C368       C1233   1.472       .  S
C368        N372   1.352       .  A
C369        C388   1.456       .  S
C369        H373   1.082       .  S
N370        C381   1.348       .  A
N370       Co380   2.091   1_545  S
C374        C386   1.453       .  S
C374        N390   1.353       .  A
Co376      Cl387   2.408       .  S
N377        C388   1.352       .  A
C378       C1070   1.465       .  S
Co380      Cl387   2.496       .  S
C391        C428   1.463       .  S
C391        N409   1.345       .  A
N392        N409   1.316       .  A
N392        N414   1.320       .  A
N392       Co429   2.081       .  S
C393        C431   1.451       .  S
C393        N418   1.330       .  A
C393        H438   1.082       .  S
H394        C435   1.081       .  S
C395        C399   1.456       .  S
C395        N419   1.341       .  A
C395        H424   1.080       .  S
Co396       N414   2.081   1_556  S
Co396       N404   2.108       .  S
Co396       N436   2.104   1_556  S
Co396       N412   2.088       .  S
Co396      Cl440   2.498       .  S
N397        C435   1.327       .  A
N397        N404   1.319       .  A
N397       Co398   2.056       .  S
Co398       N401   2.098       .  S
Co398       N418   2.075       .  S
Co398       N405   2.082       .  S
Co398      Cl440   2.406       .  S
C399       C1033   1.482       .  S
C399        N437   1.353       .  A
N400        N407   1.316       .  A
N400        N430   1.320       .  A
N400       Co433   2.071       .  S
N401        N419   1.317       .  A
N401        N437   1.328       .  A
N402        C431   1.353       .  A
N402        N412   1.329       .  A
H403        C428   1.081       .  S
N404        N425   1.332       .  A
N405        N423   1.316       .  A
N405        N410   1.327       .  A
C406        C434   1.454       .  S
C406        C880   1.478       .  S
C406        N410   1.350       .  A
N407        C422   1.341       .  A
N407       Co429   2.076       .  S
C408        C411   1.470       .  S
C408        N436   1.351       .  A
C408        H442   1.081       .  S
C411        N432   1.342       .  A
N412        N418   1.321       .  A
N413        C439   1.346       .  A
N413        N415   1.318       .  A
N413       Co429   2.096       .  S
N414        C428   1.347       .  A
N415        N443   1.322       .  A
N415       Co433   2.078       .  S
H416        C439   1.081       .  S
H417        C434   1.072       .  S
N419       Co433   2.074   1_556  S
N420        N432   1.315       .  A
N420        N436   1.321       .  A
N420       Co429   2.068       .  S
C421        C435   1.448       .  S
C421        N425   1.359       .  A
C422        C441   1.461       .  S
C422        H426   1.080       .  S
N423        C434   1.336       .  A
N423       Co433   2.075   1_556  S
C427        C439   1.467       .  S
C427        C833   1.487       .  S
C427        N443   1.348       .  A
Co429      Cl440   2.408   1_554  S
N430        C441   1.348       .  A
Co433      Cl440   2.478   1_554  S
C441       C1080   1.475       .  S
C444        C481   1.455       .  S
C444       C1180   1.466       .  S
C444        N462   1.346       .  A
N445        N462   1.324       .  A
N445        N467   1.318       .  A
N445       Co482   2.081       .  S
C446        C484   1.463       .  S
C446        N471   1.343       .  A
C446        H491   1.082       .  S
H447        C488   1.081       .  S
C448        C452   1.461       .  S
C448        N472   1.347       .  A
C448        H477   1.081       .  S
Co449       N467   2.078   1_565  S
Co449       N457   2.076       .  S
Co449       N489   2.083   1_565  S
Co449       N465   2.089       .  S
Co449      Cl493   2.478       .  S
N450        C488   1.340       .  A
N450        N457   1.318       .  A
N450       Co451   2.075       .  S
Co451       N454   2.084       .  S
Co451       N471   2.087       .  S
Co451       N458   2.071       .  S
Co451      Cl493   2.410       .  S
C452        N490   1.345       .  A
N453        N460   1.318       .  A
N453        N483   1.330       .  A
N453       Co486   2.098   1_545  S
N454        N472   1.320       .  A
N454        N490   1.317       .  A
N455        C484   1.352       .  A
N455        N465   1.324       .  A
H456        C481   1.081   1_565  S
N457        N478   1.321       .  A
N458        N476   1.321       .  A
N458        N463   1.315       .  A
C459        C487   1.467       .  S
C459        C656   1.460       .  S
C459        N463   1.343       .  A
N460        C475   1.327       .  A
N460       Co482   2.060       .  S
C461        C464   1.462       .  S
C461        N489   1.335       .  A
C461        H495   1.074       .  S
C464       C1053   1.486       .  S
C464        N485   1.351       .  A
N465        N471   1.318       .  A
N466        C492   1.328       .  A
N466        N468   1.320       .  A
N466       Co482   2.071       .  S
N467        C481   1.342       .  A
N468        N496   1.330       .  A
N468       Co486   2.089   1_545  S
H469        C492   1.081       .  S
H470        C487   1.081       .  S
N472       Co486   2.080       .  S
N473        N485   1.326       .  A
N473        N489   1.316       .  A
N473       Co482   2.081       .  S
C474        C488   1.457       .  S
C474       C1133   1.463       .  S
C474        N478   1.347       .  A
C475        C494   1.450       .  S
C475        H479   1.082       .  S
N476        C487   1.348       .  A
N476       Co486   2.093       .  S
C480        C492   1.451       .  S
C480        C547   1.466       .  S
C480        N496   1.353       .  A
Co482      Cl493   2.410   1_545  S
N483        C494   1.356       .  A
C484        C953   1.485       .  S
Co486      Cl493   2.493       .  S
C497        C534   1.458       .  S
C497       C1060   1.458       .  S
C497        N515   1.350       .  A
N498        N515   1.323       .  A
N498        N520   1.316       .  A
N498       Co535   2.079       .  S
C499        C537   1.461       .  S
C499        N524   1.345       .  A
C499        H544   1.080       .  S
H500        C541   1.080       .  S
C501        C505   1.471       .  S
C501        N525   1.351       .  A
C501        H530   1.081       .  S
Co502       N520   2.066   1_556  S
Co502       N510   2.104       .  S
Co502       N542   2.092   1_556  S
Co502       N518   2.072       .  S
Co502      Cl546   2.482       .  S
N503        C541   1.344       .  A
N503        N510   1.319       .  A
N503       Co504   2.095       .  S
Co504       N507   2.066       .  S
Co504       N524   2.085       .  S
Co504       N511   2.085       .  S
Co504      Cl546   2.408       .  S
C505        C623   1.463       .  S
C505        N543   1.340       .  A
N506        N513   1.322       .  A
N506        N536   1.330       .  A
N506       Co539   2.098       .  S
N507        N525   1.320       .  A
N507        N543   1.314       .  A
N508        C537   1.345       .  A
N508        N518   1.322       .  A
H509        C534   1.082       .  S
N510        N531   1.331       .  A
N511        N529   1.321       .  A
N511        N516   1.317       .  A
C512        C540   1.466       .  S
C512        N516   1.345       .  A
N513        C528   1.330       .  A
N513       Co535   2.075       .  S
C514        C517   1.458       .  S
C514        N542   1.344       .  A
C514        H548   1.081       .  S
C517        C780   1.466       .  S
C517        N538   1.346       .  A
N518        N524   1.316       .  A
N519        C545   1.329       .  A
N519        N521   1.319       .  A
N519       Co535   2.067       .  S
N520        C534   1.336       .  A
N521        N549   1.329       .  A
N521       Co539   2.091       .  S
H522        C545   1.082       .  S
H523        C540   1.081       .  S
N525       Co539   2.099   1_556  S
N526        N538   1.324       .  A
N526        N542   1.319       .  A
N526       Co535   2.076       .  S
C527        C541   1.455       .  S
C527       C1013   1.487       .  S
C527        N531   1.355       .  A
C528        C547   1.452       .  S
C528        H532   1.081       .  S
N529        C540   1.351       .  A
N529       Co539   2.095   1_556  S
C533        C545   1.451       .  S
C533        N549   1.354       .  A
Co535      Cl546   2.409   1_554  S
N536        C547   1.354       .  A
C537        C743   1.476       .  S
Co539      Cl546   2.494   1_554  S
C550        C587   1.453       .  S
C550       C1253   1.475       .  S
C550        N568   1.351       .  A
N551        N568   1.328       .  A
N551        N573   1.317       .  A
N551       Co588   2.096       .  S
C552        C590   1.452       .  S
C552        N577   1.337       .  A
C552        H597   1.081       .  S
H553        C594   1.080       .  S
C554        C558   1.468       .  S
C554        N578   1.350       .  A
C554        H583   1.081       .  S
Co555       N573   2.076       .  S
Co555       N563   2.079   1_455  S
Co555       N595   2.084       .  S
Co555       N571   2.074   1_455  S
Co555      Cl599   2.477       .  S
N556        C594   1.338       .  A
N556        N563   1.318       .  A
N556       Co557   2.065       .  S
Co557       N560   2.059       .  S
Co557       N577   2.066       .  S
Co557       N564   2.065       .  S
Co557      Cl599   2.407   1_655  S
C558        C633   1.459       .  S
C558        N596   1.339       .  A
N559        N566   1.321       .  A
N559        N589   1.331       .  A
N559       Co592   2.094       .  S
N560        N578   1.319       .  A
N560        N596   1.314       .  A
N561        C590   1.347       .  A
N561        N571   1.322       .  A
H562        C587   1.081       .  S
N563        N584   1.322       .  A
N564        N582   1.320       .  A
N564        N569   1.315       .  A
C565        C593   1.469       .  S
C565        C696   1.463       .  S
C565        N569   1.341       .  A
N566        C581   1.329       .  A
N566       Co588   2.075       .  S
C567        C570   1.456       .  S
C567        N595   1.343       .  A
C567        H601   1.081       .  S
C570        C850   1.475       .  S
C570        N591   1.350       .  A
N571        N577   1.317       .  A
N572        C598   1.330       .  A
N572        N574   1.321       .  A
N572       Co588   2.077       .  S
N573        C587   1.341       .  A
N574        N602   1.332       .  A
N574       Co592   2.098       .  S
H575        C598   1.082       .  S
H576        C593   1.081       .  S
N578       Co592   2.094   1_655  S
N579        N591   1.327       .  A
N579        N595   1.319       .  A
N579       Co588   2.095       .  S
C580        C594   1.449       .  S
C580       C1113   1.459       .  S
C580        N584   1.347       .  A
C581        C600   1.452       .  S
C581        H585   1.082       .  S
N582        C593   1.349       .  A
N582       Co592   2.100   1_655  S
C586        C598   1.452       .  S
C586        N602   1.356       .  A
Co588      Cl599   2.406       .  S
N589        C600   1.354       .  A
C590        C713   1.459       .  S
Co592      Cl599   2.498       .  S
C603        C640   1.465       .  S
C603        N621   1.344       .  A
N604        N621   1.315       .  A
N604        N626   1.320       .  A
N604       Co641   2.074       .  S
C605        C643   1.456       .  S
C605        N630   1.334       .  A
C605        H650   1.081       .  S
H606        C647   1.082       .  S
C607        C611   1.457       .  S
C607        N631   1.335       .  A
C607        H636   1.079       .  S
Co608       N626   2.091   1_565  S
Co608       N616   2.079       .  S
Co608       N648   2.085   1_565  S
Co608       N624   2.099       .  S
Co608      Cl652   2.498       .  S
N609        C647   1.331       .  A
N609        N616   1.320       .  A
N609       Co610   2.080       .  S
Co610       N613   2.096       .  S
Co610       N630   2.088       .  S
Co610       N617   2.085       .  S
Co610      Cl652   2.409       .  S
C611       C1123   1.480       .  S
C611        N649   1.355       .  A
N612        N619   1.318       .  A
N612        N642   1.325       .  A
N612       Co645   2.077   1_545  S
N613        N631   1.317       .  A
N613        N649   1.327       .  A
N614        C643   1.356       .  A
N614        N624   1.333       .  A
H615        C640   1.081       .  S
N616        N637   1.327       .  A
N617        N635   1.318       .  A
N617        N622   1.321       .  A
C618        C646   1.450       .  S
C618        C910   1.459       .  S
C618        N622   1.349       .  A
N619        C634   1.347       .  A
N619       Co641   2.109       .  S
C620        C623   1.464       .  S
C620        N648   1.349       .  A
C620        H654   1.081       .  S
C623        N644   1.346       .  A
N624        N630   1.321       .  A
N625        C651   1.345       .  A
N625        N627   1.317       .  A
N625       Co641   2.095       .  S
N626        C640   1.350       .  A
N627        N655   1.325       .  A
N627       Co645   2.075   1_545  S
H628        C651   1.081       .  S
H629        C646   1.081       .  S
N631       Co645   2.064       .  S
N632        N644   1.316       .  A
N632        N648   1.321       .  A
N632       Co641   2.087       .  S
C633        C647   1.458       .  S
C633        N637   1.350       .  A
C634        C653   1.466       .  S
C634        H638   1.079       .  S
N635        C646   1.337       .  A
N635       Co645   2.057       .  S
C639        C651   1.461       .  S
C639       C1003   1.475       .  S
C639        N655   1.348       .  A
Co641      Cl652   2.408   1_545  S
N642        C653   1.348       .  A
C643        C686   1.478       .  S
Co645      Cl652   2.480       .  S
C653       C1160   1.483       .  S
C656        C693   1.466       .  S
C656        N674   1.343       .  A
N657        N674   1.315       .  A
N657        N679   1.320       .  A
N657       Co694   2.077       .  S
C658        C696   1.457       .  S
C658        N683   1.333       .  A
C658        H703   1.082       .  S
H659        C700   1.081       .  S
C660        C664   1.444       .  S
C660        N684   1.337       .  A
C660        H689   1.081       .  S
Co661       N679   2.085   1_556  S
Co661       N669   2.112       .  S
Co661       N701   2.108   1_556  S
Co661       N677   2.084       .  S
Co661      Cl705   2.498   1_556  S
N662        C700   1.332       .  A
N662        N669   1.320       .  A
N662       Co663   2.071       .  S
Co663       N666   2.090       .  S
Co663       N683   2.086       .  S
Co663       N670   2.083       .  S
Co663      Cl705   2.408   1_556  S
C664        C920   1.461       .  S
C664        N702   1.351       .  A
N665        N672   1.317       .  A
N665        N695   1.326       .  A
N665       Co698   2.092       .  S
N666        N684   1.318       .  A
N666        N702   1.325       .  A
N667        C696   1.351       .  A
N667        N677   1.328       .  A
H668        C693   1.081       .  S
N669        N690   1.333       .  A
N670        N688   1.319       .  A
N670        N675   1.324       .  A
C671        C699   1.460       .  S
C671        C723   1.467       .  S
C671        N675   1.347       .  A
N672        C687   1.345       .  A
N672       Co694   2.086       .  S
C673        C676   1.470       .  S
C673        N701   1.352       .  A
C673        H707   1.081       .  S
C676        N697   1.342       .  A
N677        N683   1.321       .  A
N678        C704   1.344       .  A
N678        N680   1.317       .  A
N678       Co694   2.097       .  S
N679        C693   1.349       .  A
N680        N708   1.326       .  A
N680       Co698   2.082       .  S
H681        C704   1.081       .  S
H682        C699   1.081       .  S
N684       Co698   2.062   1_556  S
N685        N697   1.316       .  A
N685        N701   1.321       .  A
N685       Co694   2.070       .  S
C686        C700   1.452       .  S
C686        N690   1.359       .  A
C687        C706   1.459       .  S
C687        H691   1.080       .  S
N688        C699   1.342       .  A
N688       Co698   2.084   1_556  S
C692        C704   1.462       .  S
C692        C760   1.476       .  S
C692        N708   1.351       .  A
Co694      Cl705   2.411       .  S
N695        C706   1.350       .  A
Co698      Cl705   2.481       .  S
C706        C963   1.488       .  S
C709        C710   1.400       .  A
C709        C714   1.393       .  A
C709        H716   1.082       .  S
C710        C711   1.412       .  A
C711        C712   1.393       .  A
C711       Br718   1.918       .  S
C712        C713   1.396       .  A
C712        H717   1.084       .  S
C713        C714   1.409       .  A
C714       Br715   1.920       .  S
C719        C720   1.404       .  A
C719        C724   1.397       .  A
C719        H726   1.076       .  S
C720        C721   1.414       .  A
C721        C722   1.400       .  A
C721       Br728   1.914       .  S
C722        C723   1.397       .  A
C722        H727   1.083       .  S
C723        C724   1.402       .  A
C724       Br725   1.915       .  S
C729        C730   1.413       .  A
C729        C734   1.406       .  A
C729        H736   1.079       .  S
C730        C731   1.415       .  A
C731        C732   1.386       .  A
C731       Br738   1.913       .  S
C732        C733   1.397       .  A
C732        H737   1.083       .  S
C733        C734   1.410       .  A
C734       Br735   1.918       .  S
C739        C740   1.408       .  A
C739        C744   1.403       .  A
C739        H746   1.080       .  S
C740        C741   1.415       .  A
C741        C742   1.395       .  A
C741       Br748   1.912       .  S
C742        C743   1.397       .  A
C742        H747   1.084       .  S
C743        C744   1.412       .  A
C744       Br745   1.920       .  S
C749        C750   1.406       .  A
C749        C754   1.398       .  A
C749        H756   1.083       .  S
C750        C751   1.407       .  A
C751        C752   1.395       .  A
C751       Br758   1.913       .  S
C752        C753   1.398       .  A
C752        H757   1.077       .  S
C753        C754   1.403       .  A
C754       Br755   1.916       .  S
C759        C760   1.399       .  A
C759        C764   1.400       .  A
C759        H766   1.081       .  S
C760        C761   1.405       .  A
C761        C762   1.403       .  A
C761       Br768   1.916       .  S
C762        C763   1.407       .  A
C762        H767   1.083       .  S
C763        C764   1.411       .  A
C764       Br765   1.909       .  S
C769        C770   1.400       .  A
C769        C774   1.401       .  A
C769        H776   1.084       .  S
C770        C771   1.412       .  A
C771        C772   1.404       .  A
C771       Br778   1.919       .  S
C772        C773   1.405       .  A
C772        H777   1.083       .  S
C773        C774   1.413       .  A
C774       Br775   1.918       .  S
C779        C780   1.398       .  A
C779        C784   1.397       .  A
C779        H786   1.083       .  S
C780        C781   1.407       .  A
C781        C782   1.399       .  A
C781       Br788   1.912       .  S
C782        C783   1.401       .  A
C782        H787   1.083       .  S
C783        C784   1.410       .  A
C784       Br785   1.917       .  S
C789        C790   1.398       .  A
C789        C794   1.395   1_554  A
C789        H796   1.084       .  S
C790        C791   1.411       .  A
C791        C792   1.413   1_554  A
C791       Br798   1.912       .  S
C792        C793   1.411       .  A
C792        H797   1.077       .  S
C793        C794   1.421       .  A
C794       Br795   1.925       .  S
C799        C800   1.400       .  A
C799        C804   1.400       .  A
C799        H806   1.080       .  S
C800        C801   1.414       .  A
C801        C802   1.397       .  A
C801       Br808   1.918       .  S
C802        C803   1.396       .  A
C802        H807   1.084       .  S
C803        C804   1.408       .  A
C804       Br805   1.918       .  S
C809        C810   1.404       .  A
C809        C814   1.394       .  A
C809        H816   1.082       .  S
C810        C811   1.404       .  A
C811        C812   1.395       .  A
C811       Br818   1.919       .  S
C812        C813   1.400       .  A
C812        H817   1.080       .  S
C813        C814   1.401       .  A
C814       Br815   1.917       .  S
C819        C820   1.405       .  A
C819        C824   1.403       .  A
C819        H826   1.083       .  S
C820        C821   1.419       .  A
C821        C822   1.389       .  A
C821       Br828   1.915       .  S
C822        C823   1.392       .  A
C822        H827   1.084       .  S
C823        C824   1.411       .  A
C824       Br825   1.916       .  S
C829        C830   1.410       .  A
C829        C834   1.389       .  A
C829        H836   1.067       .  S
C830        C831   1.419       .  A
C831        C832   1.407       .  A
C831       Br838   1.914       .  S
C832        C833   1.404       .  A
C832        H837   1.083       .  S
C833        C834   1.410       .  A
C834       Br835   1.917       .  S
C839        C840   1.410       .  A
C839        C844   1.414   1_455  A
C839        H846   1.078       .  S
C840        C841   1.411       .  A
C841        C842   1.395   1_455  A
C841       Br848   1.901       .  S
C842        C843   1.399       .  A
C842        H847   1.084       .  S
C843        C844   1.415       .  A
C844       Br845   1.912       .  S
C849        C850   1.406       .  A
C849        C854   1.406       .  A
C849        H856   1.083       .  S
C850        C851   1.403       .  A
C851        C852   1.398       .  A
C851       Br858   1.918       .  S
C852        C853   1.404       .  A
C852        H857   1.081       .  S
C853        C854   1.409       .  A
C854       Br855   1.917       .  S
C859        C860   1.397       .  A
C859        C864   1.400       .  A
C859        H866   1.084       .  S
C860        C861   1.408       .  A
C861        C862   1.405       .  A
C861       Br868   1.914       .  S
C862        C863   1.404       .  A
C862        H867   1.082       .  S
C863        C864   1.417       .  A
C864       Br865   1.918       .  S
C869        C870   1.409       .  A
C869        C874   1.405       .  A
C869        H876   1.084       .  S
C870        C871   1.423       .  A
C871        C872   1.396       .  A
C871       Br878   1.908       .  S
C872        C873   1.393       .  A
C872        H877   1.085       .  S
C873        C874   1.405       .  A
C874       Br875   1.915       .  S
C879        C880   1.396       .  A
C879        C884   1.399       .  A
C879        H886   1.084       .  S
C880        C881   1.408       .  A
C881        C882   1.399       .  A
C881       Br888   1.915       .  S
C882        C883   1.405       .  A
C882        H887   1.070       .  S
C883        C884   1.421       .  A
C884       Br885   1.908       .  S
C889        C890   1.408       .  A
C889        C894   1.412   1_556  A
C889        H896   1.081       .  S
C890        C891   1.418       .  A
C891        C892   1.394   1_556  A
C891       Br898   1.909       .  S
C892        C893   1.398       .  A
C892        H897   1.081       .  S
C893        C894   1.422       .  A
C894       Br895   1.911       .  S
C899        C900   1.396       .  A
C899        C904   1.393   1_455  A
C899        H906   1.075       .  S
C900        C901   1.411       .  A
C901        C902   1.409   1_455  A
C901       Br908   1.912       .  S
C902        C903   1.412       .  A
C902        H907   1.081       .  S
C903        C904   1.415       .  A
C904       Br905   1.924       .  S
C909        C910   1.399       .  A
C909        C914   1.386       .  A
C909        H916   1.084       .  S
C910        C911   1.410       .  A
C911        C912   1.406       .  A
C911       Br918   1.920       .  S
C912        C913   1.403       .  A
C912        H917   1.076       .  S
C913        C914   1.408       .  A
C914       Br915   1.922       .  S
C919        C920   1.397       .  A
C919        C924   1.394       .  A
C919        H926   1.084       .  S
C920        C921   1.409       .  A
C921        C922   1.399       .  A
C921       Br928   1.918       .  S
C922        C923   1.402       .  A
C922        H927   1.083       .  S
C923        C924   1.411       .  A
C924       Br925   1.920       .  S
C929        C930   1.407       .  A
C929        C934   1.397       .  A
C929        H936   1.071       .  S
C930        C931   1.403       .  A
C931        C932   1.397       .  A
C931       Br938   1.908       .  S
C932        C933   1.406       .  A
C932        H937   1.083       .  S
C933        C934   1.413       .  A
C934       Br935   1.919       .  S
C939        C940   1.403       .  A
C939        C944   1.391       .  A
C939        H946   1.078       .  S
C940        C941   1.408       .  A
C941        C942   1.405       .  A
C941       Br948   1.916       .  S
C942        C943   1.408       .  A
C942        H947   1.083       .  S
C943        C944   1.402       .  A
C944       Br945   1.920       .  S
C949        C950   1.409       .  A
C949        C954   1.388       .  A
C949        H956   1.065       .  S
C950        C951   1.419       .  A
C951        C952   1.407       .  A
C951       Br958   1.916       .  S
C952        C953   1.405       .  A
C952        H957   1.083       .  S
C953        C954   1.405       .  A
C954       Br955   1.910       .  S
C959        C960   1.409       .  A
C959        C964   1.397       .  A
C959        H966   1.079       .  S
C960        C961   1.412       .  A
C961        C962   1.408       .  A
C961       Br968   1.917       .  S
C962        C963   1.410       .  A
C962        H967   1.083       .  S
C963        C964   1.407       .  A
C964       Br965   1.920       .  S
C969        C970   1.398       .  A
C969        C974   1.399       .  A
C969        H976   1.083       .  S
C970        C971   1.408       .  A
C971        C972   1.399       .  A
C971       Br978   1.917       .  S
C972        C973   1.402       .  A
C972        H977   1.083       .  S
C973        C974   1.414       .  A
C974       Br975   1.920       .  S
C979        C980   1.403       .  A
C979        C984   1.404       .  A
C979        H986   1.083       .  S
C980        C981   1.412       .  A
C981        C982   1.397       .  A
C981       Br988   1.915       .  S
C982        C983   1.397       .  A
C982        H987   1.084       .  S
C983        C984   1.411       .  A
C984       Br985   1.918       .  S
C989        C990   1.406       .  A
C989        C994   1.413   1_554  A
C989        H996   1.082       .  S
C990        C991   1.410       .  A
C991        C992   1.396   1_554  A
C991       Br998   1.904       .  S
C992        C993   1.400       .  A
C992        H997   1.079       .  S
C993        C994   1.423       .  A
C994       Br995   1.909       .  S
C999       C1000   1.403       .  A
C999       C1004   1.402       .  A
C999       H1006   1.083       .  S
C1000      C1001   1.412       .  A
C1001      C1002   1.401       .  A
C1001     Br1008   1.919       .  S
C1002      C1003   1.399       .  A
C1002      H1007   1.083       .  S
C1003      C1004   1.410       .  A
C1004     Br1005   1.918   1_545  S
C1009      C1010   1.409       .  A
C1009      C1014   1.403       .  A
C1009      H1016   1.083       .  S
C1010      C1011   1.411       .  A
C1011      C1012   1.409       .  A
C1011     Br1018   1.918       .  S
C1012      C1013   1.408       .  A
C1012      H1017   1.083       .  S
C1013      C1014   1.405       .  A
C1014     Br1015   1.917       .  S
C1019      C1020   1.407       .  A
C1019      C1024   1.403       .  A
C1019      H1026   1.081       .  S
C1020      C1021   1.414       .  A
C1021      C1022   1.406       .  A
C1021     Br1028   1.920       .  S
C1022      C1023   1.414       .  A
C1022      H1027   1.074       .  S
C1023      C1024   1.411       .  A
C1024     Br1025   1.915       .  S
C1029      C1030   1.409       .  A
C1029      C1034   1.396       .  A
C1029      H1036   1.083       .  S
C1030      C1031   1.422       .  A
C1031      C1032   1.406       .  A
C1031     Br1038   1.926       .  S
C1032      C1033   1.406       .  A
C1032      H1037   1.083       .  S
C1033      C1034   1.406       .  A
C1034     Br1035   1.920       .  S
C1039      C1040   1.396       .  A
C1039      C1044   1.408   1_545  A
C1039      H1046   1.078       .  S
C1040      C1041   1.408   1_545  A
C1041      C1042   1.404       .  A
C1041     Br1048   1.895   1_565  S
C1042      C1043   1.406       .  A
C1042      H1047   1.076       .  S
C1043      C1044   1.434       .  A
C1044     Br1045   1.902       .  S
C1049      C1050   1.404       .  A
C1049      C1054   1.396       .  A
C1049      H1056   1.070       .  S
C1050      C1051   1.428       .  A
C1051      C1052   1.401       .  A
C1051     Br1058   1.903       .  S
C1052      C1053   1.395       .  A
C1052      H1057   1.084       .  S
C1053      C1054   1.408       .  A
C1054     Br1055   1.907       .  S
C1059      C1060   1.394       .  A
C1059      C1064   1.388       .  A
C1059      H1066   1.085       .  S
C1060      C1061   1.404       .  A
C1061      C1062   1.401       .  A
C1061     Br1068   1.916       .  S
C1062      C1063   1.406       .  A
C1062      H1067   1.083       .  S
C1063      C1064   1.414       .  A
C1064     Br1065   1.902       .  S
C1069      C1070   1.396       .  A
C1069      C1074   1.394       .  A
C1069      H1076   1.084       .  S
C1070      C1071   1.410       .  A
C1071      C1072   1.399       .  A
C1071     Br1078   1.916       .  S
C1072      C1073   1.401       .  A
C1072      H1077   1.083       .  S
C1073      C1074   1.416       .  A
C1074     Br1075   1.923       .  S
C1079      C1080   1.402       .  A
C1079      C1084   1.395       .  A
C1079      H1086   1.084       .  S
C1080      C1081   1.406       .  A
C1081      C1082   1.396       .  A
C1081     Br1088   1.919       .  S
C1082      C1083   1.409       .  A
C1082      H1087   1.065       .  S
C1083      C1084   1.411       .  A
C1084     Br1085   1.900       .  S
C1089      C1090   1.413       .  A
C1089      C1094   1.411   1_545  A
C1089      H1096   1.076       .  S
C1090      C1091   1.416       .  A
C1091      C1092   1.396   1_545  A
C1091     Br1098   1.901       .  S
C1092      C1093   1.401       .  A
C1092      H1097   1.076       .  S
C1093      C1094   1.420       .  A
C1094     Br1095   1.908       .  S
C1099      C1100   1.401       .  A
C1099      C1104   1.395   1_554  A
C1099      H1106   1.083       .  S
C1100      C1101   1.427       .  A
C1101      C1102   1.409   1_554  A
C1101     Br1108   1.926       .  S
C1102      C1103   1.409       .  A
C1102      H1107   1.072       .  S
C1103      C1104   1.420       .  A
C1104     Br1105   1.902       .  S
C1109      C1110   1.401       .  A
C1109      C1114   1.396       .  A
C1109      H1116   1.084       .  S
C1110      C1111   1.415       .  A
C1111      C1112   1.389       .  A
C1111     Br1118   1.924       .  S
C1112      C1113   1.393       .  A
C1112      H1117   1.084       .  S
C1113      C1114   1.411       .  A
C1114     Br1115   1.919       .  S
C1119      C1120   1.404       .  A
C1119      C1124   1.390       .  A
C1119      H1126   1.071       .  S
C1120      C1121   1.422       .  A
C1121      C1122   1.403       .  A
C1121     Br1128   1.903       .  S
C1122      C1123   1.397       .  A
C1122      H1127   1.084       .  S
C1123      C1124   1.406       .  A
C1124     Br1125   1.903       .  S
C1129      C1130   1.401       .  A
C1129      C1134   1.395       .  A
C1129      H1136   1.082       .  S
C1130      C1131   1.412       .  A
C1131      C1132   1.395       .  A
C1131     Br1138   1.925       .  S
C1132      C1133   1.398       .  A
C1132      H1137   1.084       .  S
C1133      C1134   1.409       .  A
C1134     Br1135   1.919       .  S
C1139      C1140   1.403       .  A
C1139      C1144   1.397       .  A
C1139      H1146   1.081       .  S
C1140      C1141   1.413       .  A
C1141      C1142   1.394       .  A
C1141     Br1148   1.909       .  S
C1142      C1143   1.393       .  A
C1142      H1147   1.084       .  S
C1143      C1144   1.406       .  A
C1144     Br1145   1.914       .  S
C1149      C1150   1.415       .  A
C1149      C1154   1.398       .  A
C1149      H1156   1.063       .  S
C1150      C1151   1.425       .  A
C1151      C1152   1.391       .  A
C1151     Br1158   1.915       .  S
C1152      C1153   1.394       .  A
C1152      H1157   1.075       .  S
C1153      C1154   1.402       .  A
C1154     Br1155   1.921       .  S
C1159      C1160   1.404       .  A
C1159      C1164   1.406       .  A
C1159      H1166   1.084       .  S
C1160      C1161   1.408       .  A
C1161      C1162   1.405       .  A
C1161     Br1168   1.916       .  S
C1162      C1163   1.411       .  A
C1162      H1167   1.078       .  S
C1163      C1164   1.414       .  A
C1164     Br1165   1.906       .  S
C1169      C1170   1.405       .  A
C1169      C1174   1.404       .  A
C1169      H1176   1.083       .  S
C1170      C1171   1.414       .  A
C1171      C1172   1.401       .  A
C1171     Br1178   1.916       .  S
C1172      C1173   1.399       .  A
C1172      H1177   1.083       .  S
C1173      C1174   1.411       .  A
C1174     Br1175   1.918       .  S
C1179      C1180   1.395       .  A
C1179      C1184   1.395       .  A
C1179      H1186   1.084       .  S
C1180      C1181   1.408       .  A
C1181      C1182   1.401       .  A
C1181     Br1188   1.914       .  S
C1182      C1183   1.402       .  A
C1182      H1187   1.083       .  S
C1183      C1184   1.411       .  A
C1184     Br1185   1.912       .  S
C1189      C1190   1.406       .  A
C1189      C1194   1.414   1_545  A
C1189      H1196   1.083       .  S
C1190      C1191   1.410   1_545  A
C1191      C1192   1.398       .  A
C1191     Br1198   1.915   1_565  S
C1192      C1193   1.405       .  A
C1192      H1197   1.079       .  S
C1193      C1194   1.421       .  A
C1194     Br1195   1.906       .  S
C1199      C1200   1.406       .  A
C1199      C1204   1.405       .  A
C1199      H1206   1.083       .  S
C1200      C1201   1.419       .  A
C1201      C1202   1.390       .  A
C1201     Br1208   1.912       .  S
C1202      C1203   1.393       .  A
C1202      H1207   1.084       .  S
C1203      C1204   1.412       .  A
C1204     Br1205   1.915       .  S
C1209      C1210   1.417       .  A
C1209      C1214   1.400       .  A
C1209      H1216   1.072       .  S
C1210      C1211   1.419       .  A
C1211      C1212   1.408       .  A
C1211     Br1218   1.914       .  S
C1212      C1213   1.405       .  A
C1212      H1217   1.083       .  S
C1213      C1214   1.410       .  A
C1214     Br1215   1.917       .  S
C1219      C1220   1.405       .  A
C1219      C1224   1.397       .  A
C1219      H1226   1.081       .  S
C1220      C1221   1.409       .  A
C1221      C1222   1.401       .  A
C1221     Br1228   1.918       .  S
C1222      C1223   1.404       .  A
C1222      H1227   1.082       .  S
C1223      C1224   1.403       .  A
C1224     Br1225   1.917       .  S
C1229      C1230   1.403       .  A
C1229      C1234   1.404       .  A
C1229      H1236   1.082       .  S
C1230      C1231   1.415       .  A
C1231      C1232   1.397       .  A
C1231     Br1238   1.917       .  S
C1232      C1233   1.395       .  A
C1232      H1237   1.084       .  S
C1233      C1234   1.412       .  A
C1234     Br1235   1.920       .  S
C1239      C1240   1.401       .  A
C1239      C1244   1.398       .  A
C1239      H1246   1.083       .  S
C1240      C1241   1.412       .  A
C1241      C1242   1.405   1_455  A
C1241     Br1248   1.916       .  S
C1242      C1243   1.416       .  A
C1242      H1247   1.077       .  S
C1243      C1244   1.422   1_655  A
C1244     Br1245   1.904   1_455  S
C1249      C1250   1.404       .  A
C1249      C1254   1.405       .  A
C1249      H1256   1.083       .  S
C1250      C1251   1.415       .  A
C1251      C1252   1.398       .  A
C1251     Br1258   1.912       .  S
C1252      C1253   1.395       .  A
C1252      H1257   1.084       .  S
C1253      C1254   1.409       .  A
C1254     Br1255   1.913       .  S
C1259      C1260   1.402       .  A
C1259      C1264   1.398       .  A
C1259      H1266   1.083       .  S
C1260      C1261   1.413       .  A
C1261      C1262   1.396       .  A
C1261     Br1268   1.920       .  S
C1262      C1263   1.397       .  A
C1262      H1267   1.084       .  S
C1263      C1264   1.409       .  A
C1264     Br1265   1.919       .  S
C1269      C1270   1.394       .  A
C1269      C1274   1.394       .  A
C1269      H1276   1.084       .  S
C1270      C1271   1.415       .  A
C1271      C1272   1.404       .  A
C1271     Br1278   1.917       .  S
C1272      C1273   1.407       .  A
C1272      H1277   1.083       .  S
C1273      C1274   1.421       .  A
C1274     Br1275   1.908       .  S
C1279      C1280   1.397       .  A
C1279      C1284   1.390       .  A
C1279      H1286   1.079       .  S
C1280      C1281   1.419       .  A
C1281      C1282   1.406       .  A
C1281     Br1288   1.916       .  S
C1282      C1283   1.402       .  A
C1282      H1287   1.083       .  S
C1283      C1284   1.409       .  A
C1284     Br1285   1.903       .  S
C1289      C1290   1.400       .  A
C1289      C1294   1.399   1_565  A
C1289      H1296   1.081       .  S
C1290      C1291   1.416       .  A
C1291      C1292   1.418   1_565  A
C1291     Br1298   1.912       .  S
C1292      C1293   1.412       .  A
C1292      H1297   1.077       .  S
C1293      C1294   1.412       .  A
C1294     Br1295   1.905       .  S
C1299      C1300   1.406       .  A
C1299      C1304   1.401   1_655  A
C1299      H1306   1.080       .  S
C1300      C1301   1.422       .  A
C1301      C1302   1.408   1_655  A
C1301     Br1308   1.901       .  S
C1302      C1303   1.401       .  A
C1302      H1307   1.081       .  S
C1303      C1304   1.415       .  A
C1304     Br1305   1.917       .  S
