geometry optimzed in LAMMPS
_audit_creation_date              2020-12-01 
_audit_creation_method            'lammps2cif' 
_symmetry_space_group_name_H-M    'P1' 
_symmetry_Int_Tables_number       1 
_symmetry_cell_setting            triclinic 
loop_ 
_symmetry_equiv_pos_as_xyz 
  x,y,z 
_cell_length_a                    26.15012732 
_cell_length_b                    24.42628215372357 
_cell_length_c                    45.482989739517485 
_cell_angle_alpha                 91.04967824732167 
_cell_angle_beta                  91.04957695739452 
_cell_angle_gamma                 91.61579996623749 
loop_ 
_atom_site_label 
_atom_site_type_symbol 
_atom_site_fract_x 
_atom_site_fract_y 
_atom_site_fract_z 
_atom_site_charge 
O1          O  0.04757739  0.30503720  0.28313476    -0.70600
O2          O  0.05039335  0.19968964  0.22034400    -0.70800
O3          O  0.04761052  0.30941574  0.22344977    -0.70700
O4          O  0.05088796  0.19584444  0.27950137    -0.70700
O5          O  0.46768008  0.19217898  0.27894803    -0.70700
O6          O  0.46464893  0.30307577  0.22181037    -0.70700
O7          O  0.46739805  0.19381275  0.22022597    -0.70600
O8          O  0.46495130  0.30148562  0.28106739    -0.70800
V9          V  0.04759141  0.25260723  0.25153363     1.35200
V10         V  0.46784280  0.24789552  0.25054786     1.35200
C11         C  0.50554367  0.31997797  0.29362049     0.78600
C12         C  0.00915870  0.17834399  0.20982317     0.78700
C13         C  0.00560862  0.32454550  0.21245648     0.78500
C14         C  0.50964354  0.17497157  0.28876749     0.78500
C15         C  0.00199198  0.49605411  0.11986204    -0.01300
C16         C  0.49403939  0.00267361  0.37958986    -0.01300
O17         O  0.29898339  0.45276750  0.02517191    -0.70600
O18         O  0.19248538  0.46271272  0.46667662    -0.70800
O19         O  0.29517849  0.45960500  0.46651572    -0.70700
O20         O  0.19526620  0.45430249  0.02559910    -0.70700
O21         O  0.19721346  0.04303588  0.02853368    -0.70700
O22         O  0.30218386  0.04807191  0.47153681    -0.70700
O23         O  0.19934794  0.05151140  0.46989574    -0.70600
O24         O  0.30053826  0.04124142  0.03013362    -0.70800
V25         V  0.24556514  0.45903403  0.99609444     1.35200
V26         V  0.24970388  0.04421137  0.49999245     1.35200
C27         C  0.31896928  0.49582791  0.03709713     0.78600
C28         C  0.17800518  0.50917005  0.45843469     0.78700
C29         C  0.31684543  0.50419251  0.45953714     0.78500
C30         C  0.17816552  0.49771989  0.03669379     0.78500
C31         C  0.04372413  0.51555296  0.40056257    -0.04200
C32         C  0.04182869  0.02919753  0.43170571    -0.01300
C33         C  0.08599636  0.02714372  0.44992882     0.03700
C34         C  0.13339874  0.51459333  0.43813017    -0.04200
C35         C  0.13827821  0.51312338  0.40742323    -0.01300
C36         C  0.09446753  0.51768196  0.38874006     0.03700
C37         C  0.99782902  0.05265645  0.44578728     0.38300
C38         C  0.18820315  0.50465075  0.39499708     0.38300
C39         C  0.10269105  0.52173316  0.35734284     0.36800
C40         C  0.08298179  0.04095568  0.48112285     0.36800
N41         N  0.10992434  0.52501467  0.33239454    -0.38100
N42         N  0.07951840  0.05356294  0.50562644    -0.38100
N43         N  0.22782301  0.49705879  0.38500518    -0.37500
N44         N  0.46435797  0.07263196  0.45791119    -0.37500
C45         C  0.44421909  0.50314286  0.39884480    -0.04200
C46         C  0.40226563  0.03970913  0.39495111    -0.01300
C47         C  0.36200922  0.04115827  0.41539711     0.03700
C48         C  0.35969845  0.50388578  0.43853195    -0.04200
C49         C  0.39767523  0.46459461  0.44133940    -0.01300
C50         C  0.43873362  0.46328412  0.42171099     0.03700
C51         C  0.39537592  0.07248025  0.36900269     0.38300
C52         C  0.39665486  0.42733492  0.46596700     0.38300
C53         C  0.47635963  0.42157028  0.42661983     0.36800
C54         C  0.32132925  0.08005504  0.41187569     0.36800
N55         N  0.00483263  0.38748301  0.43177188    -0.38100
N56         N  0.28900609  0.11104524  0.40904149    -0.38100
N57         N  0.39607337  0.39786723  0.48560713    -0.37500
N58         N  0.38750582  0.09891843  0.34862079    -0.37500
C59         C  0.05004629  0.49747280  0.09815512    -0.04200
C60         C  0.05255704  0.45794616  0.07419440    -0.01300
C61         C  0.09344394  0.45887962  0.05408306     0.03700
C62         C  0.13543273  0.49581630  0.05816117    -0.04200
C63         C  0.13436836  0.03401586  0.08144436    -0.01300
C64         C  0.09040186  0.03925102  0.09878635     0.03700
C65         C  0.01529876  0.41305503  0.07034385     0.38300
C66         C  0.17938331  0.06906707  0.08764538     0.38300
C67         C  0.08690300  0.09256576  0.11315711     0.36800
C68         C  0.09168237  0.42169206  0.02870976     0.36800
N69         N  0.08585542  0.13614381  0.12357366    -0.38100
N70         N  0.08990501  0.39221674  0.50847423    -0.38100
N71         N  0.21532407  0.09661711  0.09268617    -0.37500
N72         N  0.48770147  0.37581882  0.06592529    -0.37500
C73         C  0.36448313  0.49406854  0.05768108    -0.04200
C74         C  0.40567432  0.03132617  0.05459740    -0.01300
C75         C  0.44816735  0.03211983  0.07447116     0.04900
C76         C  0.45241678  0.49347418  0.09802992    -0.04200
C77         C  0.41194485  0.45139599  0.09802979    -0.01300
C78         C  0.36757756  0.45466936  0.07964457     0.03700
C79         C  0.40457299  0.07009743  0.03069427     0.38300
C80         C  0.41563321  0.40027702  0.11359530     0.38300
C81         C  0.32422512  0.41701741  0.08354426     0.36800
C82         C  0.48553381  0.07642974  0.07078063     0.36800
N83         N  0.28960730  0.38729229  0.08675411    -0.38100
N84         N  0.01286892  0.11320836  0.06612689    -0.38100
N85         N  0.41679963  0.35836618  0.12506811    -0.37500
N86         N  0.40347708  0.10125074  0.01184630    -0.37500
C87         C  0.00227164  0.44586140  0.14230320    -0.04200
C88         C  0.03989019  0.40336572  0.14336993    -0.01300
C89         C  0.03786358  0.36221328  0.16497000     0.03700
C90         C  0.00431865  0.36570192  0.18863014    -0.04200
C91         C  0.46893559  0.40769563  0.18921593    -0.01300
C92         C  0.46587382  0.44520317  0.16598095     0.03700
C93         C  0.08511044  0.40207632  0.12546224     0.38300
C94         C  0.43545313  0.41289933  0.21425840     0.38300
C95         C  0.42247878  0.48102548  0.16663700     0.36800
C96         C  0.07075615  0.31520512  0.16270415     0.36800
N97         N  0.38637571  0.50708223  0.16859720    -0.38100
N98         N  0.09664858  0.27769800  0.16076658    -0.38100
N99         N  0.40888827  0.41709605  0.23419989    -0.37500
N100        N  0.12291824  0.39868608  0.11275807    -0.37500
C101        C  0.00362792  0.04788841  0.14213618    -0.04200
C102        C  0.46676964  0.09101803  0.14293415    -0.01300
C103        C  0.47265770  0.13580055  0.16307631     0.03700
C104        C  0.00911351  0.13537907  0.18612589    -0.04200
C105        C  0.04319677  0.09222096  0.18749506    -0.01300
C106        C  0.04257579  0.05091803  0.16531351     0.03700
C107        C  0.41884683  0.08962307  0.12639272     0.38300
C108        C  0.07878089  0.08940869  0.21237278     0.38300
C109        C  0.08544473  0.01435071  0.16610859     0.36800
C110        C  0.44039030  0.18311364  0.16010461     0.36800
N111        N  0.12136736  0.98792165  0.16796612    -0.38100
N112        N  0.41496017  0.22085229  0.15768755    -0.38100
N113        N  0.10680124  0.08682463  0.23226451    -0.37500
N114        N  0.37920333  0.09081531  0.11466953    -0.37500
C115        C  0.49613786  0.44204191  0.36472693    -0.04200
C116        C  0.45168129  0.40889655  0.35550369    -0.01300
C117        C  0.45655081  0.36466860  0.33507433     0.03700
C118        C  0.50318398  0.35744658  0.32024863    -0.04200
C119        C  0.04735309  0.38373282  0.33283450    -0.01300
C120        C  0.04316130  0.41670004  0.35831834     0.03700
C121        C  0.39956849  0.42130724  0.36334312     0.38300
C122        C  0.09809401  0.37327064  0.32212677     0.38300
C123        C  0.07810047  0.40326315  0.38202845     0.36800
C124        C  0.41264673  0.32810468  0.32889318     0.36800
N125        N  0.10606887  0.39043594  0.40052301    -0.38100
N126        N  0.37762722  0.29900075  0.32421889    -0.38100
N127        N  0.13881122  0.36530410  0.31377580    -0.37500
N128        N  0.35731256  0.42935112  0.36877147    -0.37500
C129        C  0.49483425  0.04880895  0.35490431    -0.04200
C130        C  0.00934875  0.10506079  0.36234103    -0.01300
C131        C  0.01863811  0.14437986  0.34043631     0.03700
C132        C  0.50960745  0.13120340  0.31076729    -0.04200
C133        C  0.49202765  0.07851851  0.30260689    -0.01300
C134        C  0.48264787  0.03839090  0.32409745     0.03700
C135        C  0.00995904  0.12691687  0.39212011     0.38300
C136        C  0.48056552  0.06656650  0.27159453     0.38300
C137        C  0.45037730  0.99320286  0.31337171     0.36800
C138        C  0.03533836  0.20011394  0.34855800     0.36800
N139        N  0.42312224  0.96117427  0.30171002    -0.38100
N140        N  0.04865088  0.24433456  0.35509523    -0.38100
N141        N  0.47083583  0.05697886  0.24707941    -0.37500
N142        N  0.01097385  0.15045325  0.41444789    -0.37500
O143        O  0.04765825  0.30510182  0.78312308    -0.70600
O144        O  0.05044267  0.19969458  0.72036181    -0.70800
O145        O  0.04766991  0.30942602  0.72343647    -0.70700
O146        O  0.05094136  0.19590839  0.77952480    -0.70700
O147        O  0.46773287  0.19230083  0.77899435    -0.70700
O148        O  0.46470826  0.30306107  0.72179143    -0.70700
O149        O  0.46744855  0.19379801  0.72026518    -0.70600
O150        O  0.46502969  0.30160580  0.78104449    -0.70800
V151        V  0.04765293  0.25264273  0.75153755     1.35200
V152        V  0.46790347  0.24794637  0.75055846     1.35200
C153        C  0.50562952  0.32008638  0.79359508     0.78600
C154        C  0.00920590  0.17833139  0.70985449     0.78700
C155        C  0.00566380  0.32453651  0.71243863     0.78500
C156        C  0.50969149  0.17508129  0.78881167     0.78500
C157        C  0.00189837  0.49604374  0.61985624    -0.01300
C158        C  0.49398555  0.00265308  0.87957923    -0.01300
O159        O  0.29889257  0.45277218  0.52517458    -0.70600
O160        O  0.19256072  0.46272188  0.96667540    -0.70800
O161        O  0.29526163  0.45961439  0.96651736    -0.70700
O162        O  0.19517744  0.45432563  0.52559964    -0.70700
O163        O  0.19729118  0.04301318  0.52854694    -0.70700
O164        O  0.30211290  0.04806186  0.97152635    -0.70700
O165        O  0.19928169  0.05150391  0.96988374    -0.70600
O166        O  0.30061583  0.04123609  0.53013937    -0.70800
V167        V  0.24548194  0.45903659  0.49609532     1.35200
V168        V  0.24963190  0.04421437  0.99998293     1.35200
C169        C  0.31887733  0.49583269  0.53709818     0.78600
C170        C  0.17807412  0.50918371  0.95844075     0.78700
C171        C  0.31692996  0.50420512  0.95954829     0.78500
C172        C  0.17807331  0.49775104  0.53668438     0.78500
C173        C  0.04378578  0.51562600  0.90056786    -0.04200
C174        C  0.04176386  0.02912337  0.93170161    -0.01300
C175        C  0.08593613  0.02711318  0.94992209     0.03700
C176        C  0.13346209  0.51462302  0.93813615    -0.04200
C177        C  0.13834191  0.51321303  0.90742786    -0.01300
C178        C  0.09452809  0.51778561  0.88874653     0.03700
C179        C  0.99775578  0.05255979  0.94578570     0.38300
C180        C  0.18827345  0.50481332  0.89499587     0.38300
C181        C  0.10275092  0.52192027  0.85735307     0.36800
C182        C  0.08292635  0.04096694  0.98111199     0.36800
N183        N  0.10998373  0.52527162  0.83240789    -0.38100
N184        N  0.07946474  0.05360946  0.00561078    -0.38100
N185        N  0.22789808  0.49728653  0.88499494    -0.37500
N186        N  0.46428275  0.07252794  0.95791113    -0.37500
C187        C  0.44428566  0.50314991  0.89885679    -0.04200
C188        C  0.40223548  0.03975577  0.89495983    -0.01300
C189        C  0.36194619  0.04116603  0.91538930     0.03700
C190        C  0.35979017  0.50390531  0.93855206    -0.04200
C191        C  0.39778836  0.46463789  0.94137341    -0.01300
C192        C  0.43884981  0.46333565  0.92174749     0.03700
C193        C  0.39542750  0.07265156  0.86905109     0.38300
C194        C  0.39678314  0.42739723  0.96600861     0.38300
C195        C  0.47652890  0.42167868  0.92667089     0.36800
C196        C  0.32125406  0.08004616  0.91186147     0.36800
N197        N  0.00507865  0.38766281  0.93182068    -0.38100
N198        N  0.28891490  0.11101545  0.90902032    -0.38100
N199        N  0.39621244  0.39794218  0.98565422    -0.37500
N200        N  0.38762876  0.09919684  0.84870140    -0.37500
C201        C  0.04993991  0.49749681  0.59814079    -0.04200
C202        C  0.05245726  0.45797333  0.57418013    -0.01300
C203        C  0.09334897  0.45890899  0.55407199     0.03700
C204        C  0.13532557  0.49586541  0.55814449    -0.04200
C205        C  0.13449670  0.03393681  0.58147447    -0.01300
C206        C  0.09052401  0.03920336  0.59880686     0.03700
C207        C  0.01520817  0.41307153  0.57033379     0.38300
C208        C  0.17954914  0.06891627  0.58770143     0.38300
C209        C  0.08703817  0.09252986  0.61316526     0.36800
C210        C  0.09160584  0.42169889  0.52870850     0.36800
N211        N  0.08599956  0.13611550  0.62357299    -0.38100
N212        N  0.08996745  0.39223065  0.00846699    -0.38100
N213        N  0.21552597  0.09639883  0.59276310    -0.37500
N214        N  0.48761757  0.37582716  0.56592255    -0.37500
C215        C  0.36438454  0.49407008  0.55768491    -0.04200
C216        C  0.40576874  0.03132549  0.55459222    -0.01300
C217        C  0.44827759  0.03210202  0.57445651     0.04900
C218        C  0.45231562  0.49346980  0.59803240    -0.04200
C219        C  0.41184745  0.45138838  0.59803006    -0.01300
C220        C  0.36747667  0.45466872  0.57964799     0.03700
C221        C  0.40464542  0.07012660  0.53070356     0.38300
C222        C  0.41553677  0.40027016  0.61359597     0.38300
C223        C  0.32412161  0.41702072  0.58354853     0.36800
C224        C  0.48568533  0.07636379  0.57074008     0.36800
N225        N  0.28950081  0.38729966  0.58675881    -0.38100
N226        N  0.01306633  0.11309322  0.56606543    -0.38100
N227        N  0.41670282  0.35836064  0.62507017    -0.37500
N228        N  0.40352993  0.10130971  0.51187026    -0.37500
C229        C  0.00220966  0.44583746  0.64228750    -0.04200
C230        C  0.03984763  0.40335820  0.64334090    -0.01300
C231        C  0.03785832  0.36220383  0.66494031     0.03700
C232        C  0.00435007  0.36569173  0.68861599    -0.04200
C233        C  0.46896346  0.40767996  0.68922074    -0.01300
C234        C  0.46583960  0.44516318  0.66597903     0.03700
C235        C  0.08506182  0.40209855  0.62542767     0.38300
C236        C  0.43555482  0.41291339  0.71429508     0.38300
C237        C  0.42241515  0.48094384  0.66664792     0.36800
C238        C  0.07076228  0.31520698  0.66266446     0.36800
N239        N  0.38628593  0.50695585  0.66862206    -0.38100
N240        N  0.09666437  0.27770880  0.66071984    -0.38100
N241        N  0.40905732  0.41713578  0.73426521    -0.37500
N242        N  0.12286927  0.39873341  0.61272103    -0.37500
C243        C  0.00372189  0.04791553  0.64213555    -0.04200
C244        C  0.46687674  0.09106059  0.64292547    -0.01300
C245        C  0.47273164  0.13581366  0.66309160     0.03700
C246        C  0.00916099  0.13536723  0.68615400    -0.04200
C247        C  0.04324496  0.09220951  0.68751942    -0.01300
C248        C  0.04264976  0.05093052  0.66532452     0.03700
C249        C  0.41899690  0.08971733  0.62634400     0.38300
C250        C  0.07879104  0.08936307  0.71241282     0.38300
C251        C  0.08552110  0.01436605  0.66612128     0.36800
C252        C  0.44045139  0.18312020  0.66013517     0.36800
N253        N  0.12144517  0.98793865  0.66797651    -0.38100
N254        N  0.41500811  0.22085211  0.65773268    -0.38100
N255        N  0.10677645  0.08674936  0.73231892    -0.37500
N256        N  0.37938273  0.09096434  0.61459144    -0.37500
C257        C  0.49623238  0.44206392  0.86474470    -0.04200
C258        C  0.45180748  0.40882680  0.85556350    -0.01300
C259        C  0.45669373  0.36464707  0.83510578     0.03700
C260        C  0.50328428  0.35756638  0.82021587    -0.04200
C261        C  0.04743947  0.38398791  0.83273638    -0.01300
C262        C  0.04328181  0.41686923  0.85825141     0.03700
C263        C  0.39969851  0.42107068  0.86348778     0.38300
C264        C  0.09815516  0.37377447  0.82192001     0.38300
C265        C  0.07826372  0.40335105  0.88192437     0.36800
C266        C  0.41285094  0.32797462  0.82896681     0.36800
N267        N  0.10626250  0.39046991  0.90039131    -0.38100
N268        N  0.37788288  0.29878302  0.82432391    -0.38100
N269        N  0.13885223  0.36601519  0.81347745    -0.37500
N270        N  0.35744654  0.42897625  0.86898782    -0.37500
C271        C  0.49483025  0.04882268  0.85490357    -0.04200
C272        C  0.00938444  0.10506401  0.86236211    -0.01300
C273        C  0.01867872  0.14441986  0.84047386     0.03700
C274        C  0.50963508  0.13129506  0.81080121    -0.04200
C275        C  0.49203337  0.07863326  0.80261792    -0.01300
C276        C  0.48267433  0.03845569  0.82408569     0.03700
C277        C  0.01006496  0.12687562  0.89215149     0.38300
C278        C  0.48052922  0.06675945  0.77160053     0.38300
C279        C  0.45054754  0.99320410  0.81329992     0.36800
C280        C  0.03538878  0.20014302  0.84861535     0.36800
N281        N  0.42342578  0.96113531  0.80156742    -0.38100
N282        N  0.04870428  0.24435764  0.85516449    -0.38100
N283        N  0.47075519  0.05723826  0.74708407    -0.37500
N284        N  0.01115539  0.15037451  0.91449089    -0.37500
O285        O  0.04760364  0.80512676  0.28313986    -0.70600
O286        O  0.05048677  0.69973701  0.22038422    -0.70800
O287        O  0.04760519  0.80945121  0.22345501    -0.70700
O288        O  0.05099074  0.69594408  0.27954521    -0.70700
O289        O  0.46778306  0.69223809  0.27901079    -0.70700
O290        O  0.46464563  0.80300923  0.22181779    -0.70700
O291        O  0.46749394  0.69375886  0.22028262    -0.70600
O292        O  0.46497549  0.80153454  0.28107222    -0.70800
V293        V  0.04764561  0.75267350  0.25155787     1.35200
V294        V  0.46789738  0.74789170  0.25058077     1.35200
C295        C  0.50556377  0.82006022  0.29361695     0.78600
C296        C  0.00926863  0.67834363  0.20987232     0.78700
C297        C  0.00558236  0.82451501  0.21245811     0.78500
C298        C  0.50975986  0.67506660  0.28882867     0.78500
C299        C  0.00174872  0.99596896  0.11985337    -0.01300
C300        C  0.49409990  0.50264233  0.37959572    -0.01300
O301        O  0.29873278  0.95271842  0.02516611    -0.70600
O302        O  0.19245063  0.96270432  0.46663280    -0.70800
O303        O  0.29515299  0.95959279  0.46650813    -0.70700
O304        O  0.19500748  0.95427060  0.02555854    -0.70700
O305        O  0.19745326  0.54306964  0.02856919    -0.70700
O306        O  0.30222965  0.54808511  0.47152740    -0.70700
O307        O  0.19939403  0.55152334  0.46990440    -0.70600
O308        O  0.30077487  0.54128997  0.03014086    -0.70800
V309        V  0.24534645  0.95899907  0.99607039     1.35200
V310        V  0.24976709  0.54425386  0.49999408     1.35200
C311        C  0.31871761  0.99577458  0.03709565     0.78600
C312        C  0.17797037  0.00917264  0.45840382     0.78700
C313        C  0.31681974  0.00418859  0.45954517     0.78500
C314        C  0.17790420  0.99769041  0.03665132     0.78500
C315        C  0.04367418  0.01564617  0.40054323    -0.04200
C316        C  0.04186312  0.52911086  0.43172560    -0.01300
C317        C  0.08603028  0.52710608  0.44995179     0.03700
C318        C  0.13336078  0.01462987  0.43809994    -0.04200
C319        C  0.13823334  0.01323681  0.40739074    -0.01300
C320        C  0.09441238  0.01781188  0.38871474     0.03700
C321        C  0.99785289  0.55256183  0.44580132     0.38300
C322        C  0.18816131  0.00484742  0.39495175     0.38300
C323        C  0.10262235  0.02193798  0.35731940     0.36800
C324        C  0.08301130  0.54096641  0.48114055     0.36800
N325        N  0.10984491  0.02528213  0.33237275    -0.38100
N326        N  0.07954372  0.55361199  0.50563863    -0.38100
N327        N  0.22778118  0.99733041  0.38494234    -0.37500
N328        N  0.46437782  0.57254366  0.45791830    -0.37500
C329        C  0.44417174  0.00315280  0.39884564    -0.04200
C330        C  0.40235109  0.53975861  0.39496789    -0.01300
C331        C  0.36205745  0.54117150  0.41539370     0.03700
C332        C  0.35968342  0.00390136  0.43854910    -0.04200
C333        C  0.39768391  0.96463584  0.44136579    -0.01300
C334        C  0.43874021  0.96333551  0.42173555     0.03700
C335        C  0.39555404  0.57266400  0.36906190     0.38300
C336        C  0.39668468  0.92739227  0.46599981     0.38300
C337        C  0.47641467  0.92167253  0.42665396     0.36800
C338        C  0.32137106  0.58005896  0.41186469     0.36800
N339        N  0.00495182  0.88764379  0.43180180    -0.38100
N340        N  0.28903753  0.61103460  0.40902289    -0.38100
N341        N  0.39611948  0.89793422  0.48564420    -0.37500
N342        N  0.38776069  0.59921819  0.34871489    -0.37500
C343        C  0.04978842  0.99741741  0.09813245    -0.04200
C344        C  0.05229248  0.95790363  0.07416553    -0.01300
C345        C  0.09317179  0.95884883  0.05404659     0.03700
C346        C  0.13515607  0.99579788  0.05811585    -0.04200
C347        C  0.13465675  0.53401929  0.08149532    -0.01300
C348        C  0.09067357  0.53928999  0.09881700     0.03700
C349        C  0.01504422  0.91299890  0.07032637     0.38300
C350        C  0.17970198  0.56900827  0.08772466     0.38300
C351        C  0.08716984  0.59262435  0.11316568     0.36800
C352        C  0.09140664  0.92165796  0.02867544     0.36800
N353        N  0.08611373  0.63621449  0.12356628    -0.38100
N354        N  0.08973829  0.89221021  0.50842542    -0.38100
N355        N  0.21567222  0.59649898  0.09279023    -0.37500
N356        N  0.48745266  0.87575128  0.06592631    -0.37500
C357        C  0.36422354  0.99400798  0.05768516    -0.04200
C358        C  0.40592816  0.53139655  0.05459416    -0.01300
C359        C  0.44843925  0.53217105  0.07445625     0.04900
C360        C  0.45215872  0.99340091  0.09803293    -0.04200
C361        C  0.41168108  0.95132884  0.09803413    -0.01300
C362        C  0.36730702  0.95461706  0.07965397     0.03700
C363        C  0.40479247  0.57021308  0.03071282     0.38300
C364        C  0.41536003  0.90021375  0.11360355     0.38300
C365        C  0.32393777  0.91699264  0.08356376     0.36800
C366        C  0.48584369  0.57643632  0.07073967     0.36800
N367        N  0.28930345  0.88729346  0.08678214    -0.38100
N368        N  0.01321763  0.61317061  0.06606296    -0.38100
N369        N  0.41651607  0.85830738  0.12508143    -0.37500
N370        N  0.40366733  0.60141021  0.01188636    -0.37500
C371        C  0.00205814  0.94576009  0.14228305    -0.04200
C372        C  0.03968845  0.90327241  0.14333049    -0.01300
C373        C  0.03771168  0.86213008  0.16493640     0.03700
C374        C  0.00423198  0.86564262  0.18862395    -0.04200
C375        C  0.46884145  0.90762519  0.18922875    -0.01300
C376        C  0.46570015  0.94509446  0.16598124     0.03700
C377        C  0.08488777  0.90199469  0.12540585     0.38300
C378        C  0.43544742  0.91286591  0.21430906     0.38300
C379        C  0.42227555  0.98087402  0.16665468     0.36800
C380        C  0.07059849  0.81511957  0.16265607     0.36800
N381        N  0.38614610  0.00688439  0.16863437    -0.38100
N382        N  0.09648443  0.77760875  0.16070858    -0.38100
N383        N  0.40896112  0.91709266  0.23428375    -0.37500
N384        N  0.12268373  0.89861284  0.11268965    -0.37500
C385        C  0.00386701  0.54798707  0.14213571    -0.04200
C386        C  0.46701981  0.59113055  0.14292003    -0.01300
C387        C  0.47286528  0.63587757  0.16308798     0.03700
C388        C  0.00926549  0.63541007  0.18616293    -0.04200
C389        C  0.04336230  0.59226641  0.18752842    -0.01300
C390        C  0.04279120  0.55100478  0.16532654     0.03700
C391        C  0.41914637  0.58979378  0.12633284     0.38300
C392        C  0.07890219  0.58942296  0.21242508     0.38300
C393        C  0.08568110  0.51446486  0.16611889     0.36800
C394        C  0.44061338  0.68320425  0.16011870     0.36800
N395        N  0.12162278  0.48806345  0.16797069    -0.38100
N396        N  0.41519899  0.72095629  0.15770556    -0.38100
N397        N  0.10688457  0.58681350  0.23233282    -0.37500
N398        N  0.37953658  0.59104982  0.11457592    -0.37500
C399        C  0.49612341  0.94207242  0.36473599    -0.04200
C400        C  0.45170238  0.90883101  0.35555423    -0.01300
C401        C  0.45660350  0.86462551  0.33511520     0.03700
C402        C  0.50320095  0.85754141  0.32023360    -0.04200
C403        C  0.04735012  0.88397201  0.33275548    -0.01300
C404        C  0.04317715  0.91686905  0.35826163     0.03700
C405        C  0.39958794  0.92109743  0.36345573     0.38300
C406        C  0.09807432  0.87374716  0.32195410     0.38300
C407        C  0.07815114  0.90337234  0.38194272     0.36800
C408        C  0.41277267  0.82793169  0.32898663     0.36800
N409        N  0.10614676  0.89050620  0.40041468    -0.38100
N410        N  0.37781570  0.79871961  0.32435404    -0.38100
N411        N  0.13877698  0.86597641  0.31352353    -0.37500
N412        N  0.35733241  0.92902112  0.36893911    -0.37500
C413        C  0.49495487  0.54881564  0.35492341    -0.04200
C414        C  0.00952437  0.60505466  0.36237952    -0.01300
C415        C  0.01879377  0.64441233  0.34048873     0.03700
C416        C  0.50974362  0.63128056  0.31081727    -0.04200
C417        C  0.49215086  0.57861392  0.30263747    -0.01300
C418        C  0.48277464  0.53845066  0.32410908     0.03700
C419        C  0.01024789  0.62686435  0.39216984     0.38300
C420        C  0.48065631  0.56672546  0.27162061     0.38300
C421        C  0.45057081  0.49324773  0.31333865     0.36800
C422        C  0.03547867  0.70014556  0.34862639     0.36800
N423        N  0.42338362  0.46122185  0.30162203    -0.38100
N424        N  0.04877069  0.74436892  0.35517272    -0.38100
N425        N  0.47089131  0.55719350  0.24710417    -0.37500
N426        N  0.01137927  0.65036208  0.41450979    -0.37500
O427        O  0.04752412  0.80506201  0.78315165    -0.70600
O428        O  0.05043360  0.69973365  0.72036558    -0.70800
O429        O  0.04754272  0.80944242  0.72346834    -0.70700
O430        O  0.05093758  0.69588006  0.77952099    -0.70700
O431        O  0.46773051  0.69211741  0.77896592    -0.70700
O432        O  0.46458316  0.80302543  0.72183823    -0.70700
O433        O  0.46743970  0.69377481  0.72024469    -0.70600
O434        O  0.46489822  0.80141550  0.78109677    -0.70800
V435        V  0.04758272  0.75263871  0.75155361     1.35200
V436        V  0.46783528  0.74784208  0.75057161     1.35200
C437        C  0.50547997  0.81995198  0.79364338     0.78600
C438        C  0.00921694  0.67835776  0.70984108     0.78700
C439        C  0.00552352  0.82452563  0.71247670     0.78500
C440        C  0.50971265  0.67495747  0.78878488     0.78500
C441        C  0.00183679  0.99598078  0.61985914    -0.01300
C442        C  0.49415678  0.50266358  0.87960647    -0.01300
O443        O  0.29881817  0.95271464  0.52516405    -0.70600
O444        O  0.19237838  0.96269513  0.96663455    -0.70800
O445        O  0.29507298  0.95958275  0.96650599    -0.70700
O446        O  0.19509055  0.95424823  0.52555743    -0.70700
O447        O  0.19736978  0.54309312  0.52855500    -0.70700
O448        O  0.30230416  0.54809451  0.97153748    -0.70700
O449        O  0.19946368  0.55153073  0.96991720    -0.70600
O450        O  0.30069145  0.54129627  0.53013552    -0.70800
V451        V  0.24542533  0.95899709  0.49606952     1.35200
V452        V  0.24984369  0.54425024  0.00000381     1.35200
C453        C  0.31880360  0.99577085  0.53709525     0.78600
C454        C  0.17790438  0.00915912  0.95839852     0.78700
C455        C  0.31673836  0.00417533  0.95953353     0.78500
C456        C  0.17799029  0.99766012  0.53665980     0.78500
C457        C  0.04361535  0.01557577  0.90053823    -0.04200
C458        C  0.04193052  0.52918592  0.93173018    -0.01300
C459        C  0.08609283  0.52713587  0.94995922     0.03700
C460        C  0.13330013  0.01460093  0.93809465    -0.04200
C461        C  0.13817256  0.01315081  0.90738674    -0.01300
C462        C  0.09435473  0.01771261  0.88870885     0.03700
C463        C  0.99792833  0.55265735  0.94580383     0.38300
C464        C  0.18809399  0.00468999  0.89495346     0.38300
C465        C  0.10256571  0.02175829  0.85730993     0.36800
C466        C  0.08306819  0.54095056  0.98115253     0.36800
N467        N  0.10978922  0.02503547  0.83236037    -0.38100
N468        N  0.07959789  0.55355768  0.00565577    -0.38100
N469        N  0.22770908  0.99710873  0.88495279    -0.37500
N470        N  0.46445472  0.57264432  0.95791994    -0.37500
C471        C  0.44410796  0.00314543  0.89883345    -0.04200
C472        C  0.40238286  0.53970965  0.89495815    -0.01300
C473        C  0.36212252  0.54116206  0.91540064     0.03700
C474        C  0.35959457  0.00388086  0.93852851    -0.04200
C475        C  0.39757396  0.96459205  0.94133151    -0.01300
C476        C  0.43862738  0.96328374  0.92169896     0.03700
C477        C  0.39550143  0.57248591  0.86901089     0.38300
C478        C  0.39656000  0.92732975  0.96595818     0.38300
C479        C  0.47624949  0.92156486  0.92660291     0.36800
C480        C  0.32144798  0.58006543  0.91187778     0.36800
N481        N  0.00471137  0.88746573  0.93175274    -0.38100
N482        N  0.28912999  0.61106160  0.90904269    -0.38100
N483        N  0.39598442  0.89785957  0.98559719    -0.37500
N484        N  0.38763489  0.59892906  0.84863047    -0.37500
C485        C  0.04988902  0.99739460  0.59814644    -0.04200
C486        C  0.05238619  0.95787774  0.57417946    -0.01300
C487        C  0.09325998  0.95882115  0.55405677     0.03700
C488        C  0.13525676  0.99575033  0.55813153    -0.04200
C489        C  0.13452187  0.53410020  0.58146401    -0.01300
C490        C  0.09054520  0.53933946  0.59879557     0.03700
C491        C  0.01512880  0.91298325  0.57033655     0.38300
C492        C  0.17952915  0.56916238  0.58766670     0.38300
C493        C  0.08702777  0.59266234  0.61315604     0.36800
C494        C  0.09147508  0.92165447  0.52867532     0.36800
N495        N  0.08596190  0.63624540  0.62356499    -0.38100
N496        N  0.08968522  0.89219165  0.00843471    -0.38100
N497        N  0.21546262  0.59672171  0.59271061    -0.37500
N498        N  0.48753054  0.87574361  0.56592998    -0.37500
C499        C  0.36431593  0.99400784  0.55768202    -0.04200
C500        C  0.40582785  0.53139784  0.55459942    -0.01300
C501        C  0.44832332  0.53218959  0.57447079     0.04900
C502        C  0.45225414  0.99340658  0.59803066    -0.04200
C503        C  0.41177223  0.95133841  0.59803470    -0.01300
C504        C  0.36740137  0.95461989  0.57965166     0.03700
C505        C  0.40471425  0.57018370  0.53070314     0.38300
C506        C  0.41544983  0.90022298  0.61360410     0.38300
C507        C  0.32403406  0.91699280  0.58356134     0.36800
C508        C  0.48568679  0.57650232  0.57077927     0.36800
N509        N  0.28940206  0.88729065  0.58677986    -0.38100
N510        N  0.01301497  0.61328514  0.56612229    -0.38100
N511        N  0.41660577  0.85831561  0.62508093    -0.37500
N512        N  0.40360879  0.60135032  0.51186167    -0.37500
C513        C  0.00211484  0.94578573  0.64229907    -0.04200
C514        C  0.03972547  0.90328136  0.64335965    -0.01300
C515        C  0.03771160  0.86214092  0.66496627     0.03700
C516        C  0.00419590  0.86565433  0.68863862    -0.04200
C517        C  0.46880894  0.90764249  0.68922467    -0.01300
C518        C  0.46572972  0.94513638  0.66598392     0.03700
C519        C  0.08493029  0.90197348  0.62544019     0.38300
C520        C  0.43534107  0.91285296  0.71427306     0.38300
C521        C  0.42233498  0.98095834  0.66664506     0.36800
C522        C  0.07058630  0.81511857  0.66269548     0.36800
N523        N  0.38623231  0.00701413  0.66861138    -0.38100
N524        N  0.09646183  0.77759832  0.66075469    -0.38100
N525        N  0.40878706  0.91705367  0.73421908    -0.37500
N526        N  0.12272626  0.89856618  0.61272613    -0.37500
C527        C  0.00376757  0.54796176  0.64213602    -0.04200
C528        C  0.46690644  0.59108904  0.64292894    -0.01300
C529        C  0.47278395  0.63586476  0.66307357     0.03700
C530        C  0.00921240  0.63542337  0.68613482    -0.04200
C531        C  0.04331014  0.59228061  0.68750305    -0.01300
C532        C  0.04271262  0.55099482  0.66531464     0.03700
C533        C  0.41899028  0.58970053  0.62638138     0.38300
C534        C  0.07889031  0.58947265  0.71238304     0.38300
C535        C  0.08560050  0.51445244  0.66610471     0.36800
C536        C  0.44054190  0.68319584  0.66009066     0.36800
N537        N  0.12154104  0.48804976  0.66795818    -0.38100
N538        N  0.41513788  0.72095285  0.65766423    -0.38100
N539        N  0.10690939  0.58689381  0.73227568    -0.37500
N540        N  0.37935144  0.59090179  0.61465359    -0.37500
C541        C  0.49603315  0.94205125  0.86471860    -0.04200
C542        C  0.45158091  0.90889966  0.85549577    -0.01300
C543        C  0.45646611  0.86464362  0.83508683     0.03700
C544        C  0.50310460  0.85742129  0.82026754    -0.04200
C545        C  0.04726769  0.88372061  0.83285245    -0.01300
C546        C  0.04306166  0.91670368  0.85832743     0.03700
C547        C  0.39946212  0.92133360  0.86331058     0.38300
C548        C  0.09801611  0.87325085  0.82215748     0.38300
C549        C  0.07799449  0.90328853  0.88204490     0.36800
C550        C  0.41257676  0.82805253  0.82891978     0.36800
N551        N  0.10596064  0.89047641  0.90054399    -0.38100
N552        N  0.37757073  0.79892300  0.82425887    -0.38100
N553        N  0.13873827  0.86527593  0.81381665    -0.37500
N554        N  0.35720226  0.92939599  0.86872075    -0.37500
C555        C  0.49496077  0.54880196  0.85492411    -0.04200
C556        C  0.00948454  0.60505252  0.86235891    -0.01300
C557        C  0.01874956  0.64437394  0.84045199     0.03700
C558        C  0.50971783  0.63118954  0.81078381    -0.04200
C559        C  0.49215208  0.57849829  0.80262628    -0.01300
C560        C  0.48275538  0.53838438  0.82412037     0.03700
C561        C  0.01012795  0.62690682  0.89213882     0.38300
C562        C  0.48070415  0.56653033  0.77161414     0.38300
C563        C  0.45041325  0.49324187  0.81340876     0.36800
C564        C  0.03541931  0.70011926  0.84857056     0.36800
N565        N  0.42309717  0.46125338  0.80176222    -0.38100
N566        N  0.04870426  0.74434962  0.85510569    -0.38100
N567        N  0.47098682  0.55693010  0.74709884    -0.37500
N568        N  0.01117377  0.65044248  0.91446699    -0.37500
O569        O  0.54757743  0.30503712  0.28313475    -0.70600
O570        O  0.55039333  0.19968961  0.22034397    -0.70800
O571        O  0.54761052  0.30941571  0.22344976    -0.70700
O572        O  0.55088798  0.19584436  0.27950134    -0.70700
O573        O  0.96768006  0.19217906  0.27894806    -0.70700
O574        O  0.96464893  0.30307577  0.22181036    -0.70700
O575        O  0.96739807  0.19381275  0.22022600    -0.70600
O576        O  0.96495126  0.30148570  0.28106737    -0.70800
V577        V  0.54759144  0.25260717  0.25153361     1.35200
V578        V  0.96784277  0.24789556  0.25054786     1.35200
C579        C  0.00554362  0.31997806  0.29362048     0.78600
C580        C  0.50915868  0.17834399  0.20982314     0.78700
C581        C  0.50560863  0.32454548  0.21245649     0.78500
C582        C  0.00964353  0.17497166  0.28876752     0.78500
C583        C  0.50199196  0.49605408  0.11986205    -0.01300
C584        C  0.99403937  0.00267361  0.37958985    -0.01300
O585        O  0.79898337  0.45276750  0.02517193    -0.70600
O586        O  0.69248537  0.46271283  0.46667660    -0.70800
O587        O  0.79517846  0.45960512  0.46651574    -0.70700
O588        O  0.69526618  0.45430247  0.02559910    -0.70700
O589        O  0.69721353  0.04303590  0.02853367    -0.70700
O590        O  0.80218385  0.04807187  0.47153679    -0.70700
O591        O  0.69934793  0.05151136  0.46989576    -0.70600
O592        O  0.80053834  0.04124143  0.03013359    -0.70800
V593        V  0.74556513  0.45903401  0.99609446     1.35200
V594        V  0.74970389  0.04421134  0.49999245     1.35200
C595        C  0.81896926  0.49582792  0.03709714     0.78600
C596        C  0.67800517  0.50917017  0.45843468     0.78700
C597        C  0.81684540  0.50419268  0.45953716     0.78500
C598        C  0.67816549  0.49771987  0.03669379     0.78500
C599        C  0.54372413  0.51555297  0.40056255    -0.04200
C600        C  0.54182872  0.02919756  0.43170571    -0.01300
C601        C  0.58599639  0.02714376  0.44992883     0.03700
C602        C  0.63339875  0.51459344  0.43813014    -0.04200
C603        C  0.63827821  0.51312350  0.40742321    -0.01300
C604        C  0.59446754  0.51768201  0.38874003     0.03700
C605        C  0.49782906  0.05265654  0.44578727     0.38300
C606        C  0.68820320  0.50465091  0.39499705     0.38300
C607        C  0.60269105  0.52173317  0.35734282     0.36800
C608        C  0.58298183  0.04095578  0.48112284     0.36800
N609        N  0.60992433  0.52501463  0.33239450    -0.38100
N610        N  0.57951847  0.05356311  0.50562644    -0.38100
N611        N  0.72782303  0.49705897  0.38500516    -0.37500
N612        N  0.96435792  0.07263184  0.45791120    -0.37500
C613        C  0.94421906  0.50314295  0.39884483    -0.04200
C614        C  0.90226558  0.03970908  0.39495108    -0.01300
C615        C  0.86200916  0.04115819  0.41539708     0.03700
C616        C  0.85969844  0.50388587  0.43853199    -0.04200
C617        C  0.89767519  0.46459476  0.44133942    -0.01300
C618        C  0.93873359  0.46328416  0.42171102     0.03700
C619        C  0.89537585  0.07248015  0.36900264     0.38300
C620        C  0.89665483  0.42733497  0.46596707     0.38300
C621        C  0.97635950  0.42157037  0.42661983     0.36800
C622        C  0.82132914  0.08005492  0.41187563     0.36800
N623        N  0.50483272  0.38748305  0.43177189    -0.38100
N624        N  0.78900595  0.11104504  0.40904142    -0.38100
N625        N  0.89607332  0.39786737  0.48560715    -0.37500
N626        N  0.88750572  0.09891828  0.34862073    -0.37500
C627        C  0.55004628  0.49747277  0.09815512    -0.04200
C628        C  0.55255704  0.45794614  0.07419441    -0.01300
C629        C  0.59344393  0.45887959  0.05408306     0.03700
C630        C  0.63543271  0.49581629  0.05816117    -0.04200
C631        C  0.63436835  0.03401591  0.08144434    -0.01300
C632        C  0.59040184  0.03925107  0.09878631     0.03700
C633        C  0.51529875  0.41305499  0.07034387     0.38300
C634        C  0.67938330  0.06906716  0.08764537     0.38300
C635        C  0.58690294  0.09256581  0.11315707     0.36800
C636        C  0.59168237  0.42169203  0.02870978     0.36800
N637        N  0.58585534  0.13614388  0.12357360    -0.38100
N638        N  0.58990494  0.39221674  0.50847428    -0.38100
N639        N  0.71532405  0.09661720  0.09268616    -0.37500
N640        N  0.98770146  0.37581886  0.06592527    -0.37500
C641        C  0.86448312  0.49406856  0.05768110    -0.04200
C642        C  0.90567440  0.03132619  0.05459741    -0.01300
C643        C  0.94816739  0.03211983  0.07447120     0.04900
C644        C  0.95241680  0.49347420  0.09802992    -0.04200
C645        C  0.91194486  0.45139601  0.09802980    -0.01300
C646        C  0.86757756  0.45466940  0.07964459     0.03700
C647        C  0.90457308  0.07009744  0.03069430     0.38300
C648        C  0.91563324  0.40027705  0.11359529     0.38300
C649        C  0.82422510  0.41701747  0.08354430     0.36800
C650        C  0.98553387  0.07642976  0.07078067     0.36800
N651        N  0.78960728  0.38729237  0.08675417    -0.38100
N652        N  0.51286887  0.11320835  0.06612683    -0.38100
N653        N  0.91679968  0.35836618  0.12506809    -0.37500
N654        N  0.90347720  0.10125079  0.01184632    -0.37500
C655        C  0.50227163  0.44586137  0.14230320    -0.04200
C656        C  0.53989018  0.40336572  0.14336994    -0.01300
C657        C  0.53786361  0.36221326  0.16497001     0.03700
C658        C  0.50431864  0.36570190  0.18863015    -0.04200
C659        C  0.96893559  0.40769568  0.18921593    -0.01300
C660        C  0.96587385  0.44520320  0.16598095     0.03700
C661        C  0.58511046  0.40207633  0.12546224     0.38300
C662        C  0.93545321  0.41289939  0.21425840     0.38300
C663        C  0.92247878  0.48102553  0.16663700     0.36800
C664        C  0.57075617  0.31520516  0.16270417     0.36800
N665        N  0.88637573  0.50708226  0.16859719    -0.38100
N666        N  0.59664863  0.27769802  0.16076659    -0.38100
N667        N  0.90888835  0.41709614  0.23419992    -0.37500
N668        N  0.62291824  0.39868610  0.11275809    -0.37500
C669        C  0.50362791  0.04788842  0.14213614    -0.04200
C670        C  0.96676968  0.09101801  0.14293419    -0.01300
C671        C  0.97265772  0.13580055  0.16307634     0.03700
C672        C  0.50911347  0.13537908  0.18612585    -0.04200
C673        C  0.54319676  0.09222097  0.18749502    -0.01300
C674        C  0.54257575  0.05091806  0.16531347     0.03700
C675        C  0.91884683  0.08962305  0.12639274     0.38300
C676        C  0.57878083  0.08940869  0.21237273     0.38300
C677        C  0.58544474  0.01435070  0.16610855     0.36800
C678        C  0.94039037  0.18311361  0.16010463     0.36800
N679        N  0.62136731  0.98792165  0.16796608    -0.38100
N680        N  0.91496022  0.22085231  0.15768756    -0.38100
N681        N  0.60680121  0.08682461  0.23226449    -0.37500
N682        N  0.87920338  0.09081531  0.11466956    -0.37500
C683        C  0.99613780  0.44204195  0.36472695    -0.04200
C684        C  0.95168124  0.40889660  0.35550371    -0.01300
C685        C  0.95655073  0.36466869  0.33507432     0.03700
C686        C  0.00318392  0.35744669  0.32024861    -0.04200
C687        C  0.54735317  0.38373269  0.33283453    -0.01300
C688        C  0.54316136  0.41669998  0.35831835     0.03700
C689        C  0.89956844  0.42130725  0.36334319     0.38300
C690        C  0.59809408  0.37327042  0.32212684     0.38300
C691        C  0.57810054  0.40326320  0.38202847     0.36800
C692        C  0.91264665  0.32810483  0.32889314     0.36800
N693        N  0.60606896  0.39043606  0.40052304    -0.38100
N694        N  0.87762711  0.29900092  0.32421883    -0.38100
N695        N  0.63881131  0.36530381  0.31377590    -0.37500
N696        N  0.85731254  0.42935110  0.36877158    -0.37500
C697        C  0.99483423  0.04880896  0.35490430    -0.04200
C698        C  0.50934885  0.10506076  0.36234102    -0.01300
C699        C  0.51863820  0.14437981  0.34043628     0.03700
C700        C  0.00960743  0.13120347  0.31076731    -0.04200
C701        C  0.99202767  0.07851857  0.30260689    -0.01300
C702        C  0.98264792  0.03839094  0.32409744     0.03700
C703        C  0.50995922  0.12691688  0.39212010     0.38300
C704        C  0.98056555  0.06656663  0.27159454     0.38300
C705        C  0.95037747  0.99320280  0.31337164     0.36800
C706        C  0.53533853  0.20011384  0.34855794     0.36800
N707        N  0.92312254  0.96117418  0.30170992    -0.38100
N708        N  0.54865113  0.24433448  0.35509516    -0.38100
N709        N  0.97083585  0.05697902  0.24707939    -0.37500
N710        N  0.51097411  0.15045327  0.41444786    -0.37500
O711        O  0.54765826  0.30510172  0.78312311    -0.70600
O712        O  0.55044269  0.19969454  0.72036181    -0.70800
O713        O  0.54766985  0.30942597  0.72343650    -0.70700
O714        O  0.55094145  0.19590830  0.77952480    -0.70700
O715        O  0.96773279  0.19230098  0.77899433    -0.70700
O716        O  0.96470833  0.30306117  0.72179138    -0.70700
O717        O  0.96744852  0.19379811  0.72026516    -0.70600
O718        O  0.96502968  0.30160597  0.78104443    -0.70800
V719        V  0.54765295  0.25264266  0.75153757     1.35200
V720        V  0.96790345  0.24794650  0.75055842     1.35200
C721        C  0.00562960  0.32008652  0.79359503     0.78600
C722        C  0.50920586  0.17833133  0.70985450     0.78700
C723        C  0.50566368  0.32453645  0.71243868     0.78500
C724        C  0.00969139  0.17508142  0.78881166     0.78500
C725        C  0.50189833  0.49604370  0.61985627    -0.01300
C726        C  0.99398556  0.00265310  0.87957920    -0.01300
O727        O  0.79889250  0.45277225  0.52517459    -0.70600
O728        O  0.69256073  0.46272182  0.96667540    -0.70800
O729        O  0.79526164  0.45961436  0.96651738    -0.70700
O730        O  0.69517736  0.45432568  0.52559963    -0.70700
O731        O  0.69729121  0.04301316  0.52854696    -0.70700
O732        O  0.80211292  0.04806181  0.97152632    -0.70700
O733        O  0.69928171  0.05150389  0.96988373    -0.70600
O734        O  0.80061587  0.04123607  0.53013936    -0.70800
V735        V  0.74548190  0.45903669  0.49609532     1.35200
V736        V  0.74963194  0.04421436  0.99998291     1.35200
C737        C  0.81887726  0.49583274  0.53709820     0.78600
C738        C  0.67807413  0.50918366  0.95844073     0.78700
C739        C  0.81692996  0.50420510  0.95954831     0.78500
C740        C  0.67807323  0.49775112  0.53668439     0.78500
C741        C  0.54378578  0.51562598  0.90056785    -0.04200
C742        C  0.54176386  0.02912337  0.93170163    -0.01300
C743        C  0.58593612  0.02711319  0.94992211     0.03700
C744        C  0.63346210  0.51462296  0.93813613    -0.04200
C745        C  0.63834191  0.51321306  0.90742784    -0.01300
C746        C  0.59452810  0.51778562  0.88874652     0.03700
C747        C  0.49775577  0.05255987  0.94578571     0.38300
C748        C  0.68827348  0.50481345  0.89499584     0.38300
C749        C  0.60275091  0.52192028  0.85735306     0.36800
C750        C  0.58292637  0.04096701  0.98111199     0.36800
N751        N  0.60998372  0.52527162  0.83240787    -0.38100
N752        N  0.57946477  0.05360961  0.00561079    -0.38100
N753        N  0.72789812  0.49728676  0.88499492    -0.37500
N754        N  0.96428273  0.07252781  0.95791114    -0.37500
C755        C  0.94428566  0.50314992  0.89885681    -0.04200
C756        C  0.90223547  0.03975575  0.89495979    -0.01300
C757        C  0.86194619  0.04116599  0.91538926     0.03700
C758        C  0.85979017  0.50390527  0.93855208    -0.04200
C759        C  0.89778836  0.46463789  0.94137342    -0.01300
C760        C  0.93884983  0.46333565  0.92174752     0.03700
C761        C  0.89542746  0.07265149  0.86905104     0.38300
C762        C  0.89678314  0.42739717  0.96600863     0.38300
C763        C  0.97652893  0.42167874  0.92667092     0.36800
C764        C  0.82125406  0.08004615  0.91186144     0.36800
N765        N  0.50507858  0.38766276  0.93182065    -0.38100
N766        N  0.78891493  0.11101545  0.90902030    -0.38100
N767        N  0.89621242  0.39794212  0.98565421    -0.37500
N768        N  0.88762869  0.09919674  0.84870134    -0.37500
C769        C  0.54993988  0.49749681  0.59814084    -0.04200
C770        C  0.55245723  0.45797326  0.57418017    -0.01300
C771        C  0.59334894  0.45890901  0.55407203     0.03700
C772        C  0.63532550  0.49586540  0.55814449    -0.04200
C773        C  0.63449670  0.03393681  0.58147447    -0.01300
C774        C  0.59052398  0.03920335  0.59880684     0.03700
C775        C  0.51520822  0.41307149  0.57033388     0.38300
C776        C  0.67954912  0.06891619  0.58770146     0.38300
C777        C  0.58703813  0.09252990  0.61316523     0.36800
C778        C  0.59160578  0.42169881  0.52870849     0.36800
N779        N  0.58599949  0.13611554  0.62357293    -0.38100
N780        N  0.58996747  0.39223060  0.00846701    -0.38100
N781        N  0.71552600  0.09639874  0.59276317    -0.37500
N782        N  0.98761753  0.37582731  0.56592245    -0.37500
C783        C  0.86438450  0.49407014  0.55768491    -0.04200
C784        C  0.90576876  0.03132549  0.55459223    -0.01300
C785        C  0.94827762  0.03210201  0.57445651     0.04900
C786        C  0.95231563  0.49346982  0.59803237    -0.04200
C787        C  0.91184747  0.45138841  0.59803003    -0.01300
C788        C  0.86747666  0.45466875  0.57964798     0.03700
C789        C  0.90464543  0.07012662  0.53070358     0.38300
C790        C  0.91553682  0.40027016  0.61359594     0.38300
C791        C  0.82412162  0.41702076  0.58354853     0.36800
C792        C  0.98568538  0.07636376  0.57074008     0.36800
N793        N  0.78950082  0.38729969  0.58675883    -0.38100
N794        N  0.51306627  0.11309326  0.56606542    -0.38100
N795        N  0.91670290  0.35836065  0.62507012    -0.37500
N796        N  0.90352993  0.10130975  0.51187029    -0.37500
C797        C  0.50220960  0.44583745  0.64228756    -0.04200
C798        C  0.53984761  0.40335816  0.64334096    -0.01300
C799        C  0.53785823  0.36220383  0.66494038     0.03700
C800        C  0.50435001  0.36569166  0.68861602    -0.04200
C801        C  0.96896358  0.40768000  0.68922069    -0.01300
C802        C  0.96583963  0.44516323  0.66597900     0.03700
C803        C  0.58506174  0.40209855  0.62542776     0.38300
C804        C  0.93555488  0.41291346  0.71429509     0.38300
C805        C  0.92241526  0.48094383  0.66664788     0.36800
C806        C  0.57076232  0.31520693  0.66266453     0.36800
N807        N  0.88628595  0.50695589  0.66862203    -0.38100
N808        N  0.59666441  0.27770889  0.66071994    -0.38100
N809        N  0.90905746  0.41713584  0.73426516    -0.37500
N810        N  0.62286927  0.39873341  0.61272109    -0.37500
C811        C  0.50372187  0.04791554  0.64213552    -0.04200
C812        C  0.96687668  0.09106061  0.64292545    -0.01300
C813        C  0.97273166  0.13581364  0.66309161     0.03700
C814        C  0.50916106  0.13536717  0.68615402    -0.04200
C815        C  0.54324496  0.09220951  0.68751938    -0.01300
C816        C  0.54264983  0.05093048  0.66532450     0.03700
C817        C  0.91899696  0.08971730  0.62634402     0.38300
C818        C  0.57879119  0.08936302  0.71241284     0.38300
C819        C  0.58552105  0.01436610  0.66612122     0.36800
C820        C  0.94045129  0.18312031  0.66013514     0.36800
N821        N  0.62144524  0.98793860  0.66797644    -0.38100
N822        N  0.91500810  0.22085207  0.65773265    -0.38100
N823        N  0.60677651  0.08674933  0.73231886    -0.37500
N824        N  0.87938267  0.09096429  0.61459143    -0.37500
C825        C  0.99623240  0.44206394  0.86474471    -0.04200
C826        C  0.95180745  0.40882680  0.85556351    -0.01300
C827        C  0.95669380  0.36464717  0.83510575     0.03700
C828        C  0.00328423  0.35756649  0.82021583    -0.04200
C829        C  0.54743942  0.38398780  0.83273642    -0.01300
C830        C  0.54328184  0.41686917  0.85825142     0.03700
C831        C  0.89969861  0.42107058  0.86348785     0.38300
C832        C  0.59815526  0.37377428  0.82192004     0.38300
C833        C  0.57826369  0.40335109  0.88192436     0.36800
C834        C  0.91285086  0.32797461  0.82896676     0.36800
N835        N  0.60626253  0.39046995  0.90039135    -0.38100
N836        N  0.87788295  0.29878309  0.82432386    -0.38100
N837        N  0.63885219  0.36601497  0.81347753    -0.37500
N838        N  0.85744653  0.42897607  0.86898795    -0.37500
C839        C  0.99483024  0.04882271  0.85490354    -0.04200
C840        C  0.50938452  0.10506397  0.86236213    -0.01300
C841        C  0.51867886  0.14441976  0.84047386     0.03700
C842        C  0.00963493  0.13129518  0.81080120    -0.04200
C843        C  0.99203327  0.07863338  0.80261791    -0.01300
C844        C  0.98267433  0.03845573  0.82408565     0.03700
C845        C  0.51006509  0.12687561  0.89215148     0.38300
C846        C  0.98052907  0.06675960  0.77160050     0.38300
C847        C  0.95054771  0.99320406  0.81329986     0.36800
C848        C  0.53538898  0.20014295  0.84861533     0.36800
N849        N  0.92342606  0.96113517  0.80156732    -0.38100
N850        N  0.54870450  0.24435753  0.85516446    -0.38100
N851        N  0.97075502  0.05723846  0.74708406    -0.37500
N852        N  0.51115557  0.15037454  0.91449089    -0.37500
O853        O  0.54760363  0.80512682  0.28313983    -0.70600
O854        O  0.55048674  0.69973701  0.22038421    -0.70800
O855        O  0.54760511  0.80945121  0.22345497    -0.70700
O856        O  0.55099074  0.69594413  0.27954520    -0.70700
O857        O  0.96778306  0.69223807  0.27901081    -0.70700
O858        O  0.96464572  0.80300923  0.22181781    -0.70700
O859        O  0.96749397  0.69375885  0.22028264    -0.70600
O860        O  0.96497550  0.80153452  0.28107225    -0.70800
V861        V  0.54764558  0.75267353  0.25155785     1.35200
V862        V  0.96789741  0.74789168  0.25058079     1.35200
C863        C  0.00556379  0.82006017  0.29361698     0.78600
C864        C  0.50926856  0.67834362  0.20987231     0.78700
C865        C  0.50558224  0.82451500  0.21245807     0.78500
C866        C  0.00975986  0.67506657  0.28882868     0.78500
C867        C  0.50174871  0.99596899  0.11985333    -0.01300
C868        C  0.99409988  0.50264235  0.37959575    -0.01300
O869        O  0.79873286  0.95271843  0.02516609    -0.70600
O870        O  0.69245064  0.96270428  0.46663281    -0.70800
O871        O  0.79515300  0.95959273  0.46650814    -0.70700
O872        O  0.69500756  0.95427062  0.02555856    -0.70700
O873        O  0.69745324  0.54306962  0.02856920    -0.70700
O874        O  0.80222961  0.54808523  0.47152743    -0.70700
O875        O  0.69939399  0.55152345  0.46990440    -0.70600
O876        O  0.80077485  0.54128997  0.03014087    -0.70800
V877        V  0.74534649  0.95899907  0.99607038     1.35200
V878        V  0.74976704  0.54425395  0.49999409     1.35200
C879        C  0.81871769  0.99577461  0.03709563     0.78600
C880        C  0.67797037  0.00917260  0.45840383     0.78700
C881        C  0.81681973  0.00418853  0.45954516     0.78500
C882        C  0.67790426  0.99769044  0.03665132     0.78500
C883        C  0.54367420  0.01564616  0.40054324    -0.04200
C884        C  0.54186312  0.52911087  0.43172556    -0.01300
C885        C  0.58603026  0.52710613  0.44995177     0.03700
C886        C  0.63336079  0.01462984  0.43809994    -0.04200
C887        C  0.63823335  0.01323671  0.40739075    -0.01300
C888        C  0.59441241  0.01781183  0.38871475     0.03700
C889        C  0.49785284  0.55256183  0.44580129     0.38300
C890        C  0.68816131  0.00484721  0.39495176     0.38300
C891        C  0.60262238  0.02193794  0.35731942     0.36800
C892        C  0.58301124  0.54096636  0.48114051     0.36800
N893        N  0.60984493  0.02528211  0.33237276    -0.38100
N894        N  0.57954362  0.55361187  0.50563862    -0.38100
N895        N  0.72778114  0.99733011  0.38494235    -0.37500
N896        N  0.96437785  0.57254371  0.45791835    -0.37500
C897        C  0.94417172  0.00315277  0.39884563    -0.04200
C898        C  0.90235111  0.53975869  0.39496794    -0.01300
C899        C  0.86205743  0.54117165  0.41539373     0.03700
C900        C  0.85968338  0.00390130  0.43854907    -0.04200
C901        C  0.89768389  0.96463579  0.44136577    -0.01300
C902        C  0.93874018  0.96333547  0.42173553     0.03700
C903        C  0.89555407  0.57266420  0.36906193     0.38300
C904        C  0.89668467  0.92739223  0.46599979     0.38300
C905        C  0.97641465  0.92167249  0.42665393     0.36800
C906        C  0.82137112  0.58005904  0.41186473     0.36800
N907        N  0.50495185  0.88764383  0.43180182    -0.38100
N908        N  0.78903752  0.61103476  0.40902292    -0.38100
N909        N  0.89611951  0.89793419  0.48564419    -0.37500
N910        N  0.88776077  0.59921839  0.34871497    -0.37500
C911        C  0.54978841  0.99741743  0.09813241    -0.04200
C912        C  0.55229249  0.95790368  0.07416548    -0.01300
C913        C  0.59317183  0.95884886  0.05404656     0.03700
C914        C  0.63515611  0.99579793  0.05811584    -0.04200
C915        C  0.63465671  0.53401930  0.08149532    -0.01300
C916        C  0.59067354  0.53928999  0.09881700     0.03700
C917        C  0.51504418  0.91299899  0.07032628     0.38300
C918        C  0.67970194  0.56900830  0.08772466     0.38300
C919        C  0.58716979  0.59262433  0.11316569     0.36800
C920        C  0.59140674  0.92165796  0.02867543     0.36800
N921        N  0.58611366  0.63621448  0.12356629    -0.38100
N922        N  0.58973825  0.89221028  0.50842538    -0.38100
N923        N  0.71567215  0.59649904  0.09279021    -0.37500
N924        N  0.98745273  0.87575113  0.06592645    -0.37500
C925        C  0.86422361  0.99400798  0.05768515    -0.04200
C926        C  0.90592815  0.53139658  0.05459416    -0.01300
C927        C  0.94843926  0.53217107  0.07445625     0.04900
C928        C  0.95215875  0.99340091  0.09803296    -0.04200
C929        C  0.91168109  0.95132884  0.09803415    -0.01300
C930        C  0.86730707  0.95461707  0.07965396     0.03700
C931        C  0.90479244  0.57021309  0.03071284     0.38300
C932        C  0.91535999  0.90021380  0.11360359     0.38300
C933        C  0.82393781  0.91699261  0.08356372     0.36800
C934        C  0.98584372  0.57643633  0.07073965     0.36800
N935        N  0.78930351  0.88729343  0.08678207    -0.38100
N936        N  0.51321758  0.61317063  0.06606299    -0.38100
N937        N  0.91651600  0.85830743  0.12508150    -0.37500
N938        N  0.90366728  0.60141025  0.01188637    -0.37500
C939        C  0.50205811  0.94576012  0.14228301    -0.04200
C940        C  0.53968841  0.90327241  0.14333045    -0.01300
C941        C  0.53771160  0.86213009  0.16493636     0.03700
C942        C  0.50423190  0.86564261  0.18862390    -0.04200
C943        C  0.96884154  0.90762519  0.18922879    -0.01300
C944        C  0.96570019  0.94509445  0.16598129     0.03700
C945        C  0.58488770  0.90199469  0.12540581     0.38300
C946        C  0.93544749  0.91286593  0.21430913     0.38300
C947        C  0.92227562  0.98087399  0.16665472     0.36800
C948        C  0.57059841  0.81511955  0.16265602     0.36800
N949        N  0.88614614  0.00688437  0.16863442    -0.38100
N950        N  0.59648434  0.77760875  0.16070852    -0.38100
N951        N  0.90896125  0.91709266  0.23428380    -0.37500
N952        N  0.62268369  0.89861284  0.11268961    -0.37500
C953        C  0.50386697  0.54798704  0.14213570    -0.04200
C954        C  0.96701981  0.59113058  0.14292002    -0.01300
C955        C  0.97286532  0.63587756  0.16308799     0.03700
C956        C  0.50926548  0.63541003  0.18616294    -0.04200
C957        C  0.54336223  0.59226638  0.18752842    -0.01300
C958        C  0.54279119  0.55100474  0.16532655     0.03700
C959        C  0.91914644  0.58979381  0.12633285     0.38300
C960        C  0.57890216  0.58942291  0.21242513     0.38300
C961        C  0.58568105  0.51446488  0.16611889     0.36800
C962        C  0.94061333  0.68320431  0.16011872     0.36800
N963        N  0.62162278  0.48806344  0.16797070    -0.38100
N964        N  0.91519896  0.72095624  0.15770560    -0.38100
N965        N  0.60688445  0.58681344  0.23233284    -0.37500
N966        N  0.87953659  0.59104986  0.11457591    -0.37500
C967        C  0.99612341  0.94207244  0.36473598    -0.04200
C968        C  0.95170235  0.90883103  0.35555421    -0.01300
C969        C  0.95660352  0.86462548  0.33511522     0.03700
C970        C  0.00320095  0.85754136  0.32023362    -0.04200
C971        C  0.54735009  0.88397205  0.33275545    -0.01300
C972        C  0.54317717  0.91686905  0.35826162     0.03700
C973        C  0.89958794  0.92109750  0.36345564     0.38300
C974        C  0.59807433  0.87374724  0.32195403     0.38300
C975        C  0.57815114  0.90337231  0.38194269     0.36800
C976        C  0.91277268  0.82793157  0.32898668     0.36800
N977        N  0.60614678  0.89050612  0.40041465    -0.38100
N978        N  0.87781577  0.79871946  0.32435413    -0.38100
N979        N  0.63877694  0.86597655  0.31352345    -0.37500
N980        N  0.85733235  0.92902124  0.36893898    -0.37500
C981        C  0.99495486  0.54881567  0.35492344    -0.04200
C982        C  0.50952433  0.60505465  0.36237950    -0.01300
C983        C  0.51879374  0.64441231  0.34048871     0.03700
C984        C  0.00974362  0.63128054  0.31081729    -0.04200
C985        C  0.99215087  0.57861392  0.30263750    -0.01300
C986        C  0.98277459  0.53845067  0.32410912     0.03700
C987        C  0.51024777  0.62686433  0.39216981     0.38300
C988        C  0.98065639  0.56672540  0.27162062     0.38300
C989        C  0.95057066  0.49324784  0.31333871     0.36800
C990        C  0.53547861  0.70014559  0.34862639     0.36800
N991        N  0.92338337  0.46122199  0.30162211    -0.38100
N992        N  0.54877057  0.74436893  0.35517273    -0.38100
N993        N  0.97089146  0.55719341  0.24710420    -0.37500
N994        N  0.51137910  0.65036208  0.41450977    -0.37500
O995        O  0.54752405  0.80506206  0.78315164    -0.70600
O996        O  0.55043354  0.69973366  0.72036559    -0.70800
O997        O  0.54754268  0.80944243  0.72346832    -0.70700
O998        O  0.55093744  0.69588010  0.77952100    -0.70700
O999        O  0.96773065  0.69211729  0.77896591    -0.70700
O1000       O  0.96458320  0.80302542  0.72183828    -0.70700
O1001       O  0.96743976  0.69377480  0.72024469    -0.70600
O1002       O  0.96489829  0.80141538  0.78109682    -0.70800
V1003       V  0.54758265  0.75263874  0.75155360     1.35200
V1004       V  0.96783536  0.74784202  0.75057164     1.35200
C1005       C  0.00548006  0.81995190  0.79364341     0.78600
C1006       C  0.50921687  0.67835777  0.70984109     0.78700
C1007       C  0.50552349  0.82452563  0.71247666     0.78500
C1008       C  0.00971280  0.67495737  0.78878487     0.78500
C1009       C  0.50183678  0.99598078  0.61985913    -0.01300
C1010       C  0.99415677  0.50266359  0.87960649    -0.01300
O1011       O  0.79881817  0.95271462  0.52516406    -0.70600
O1012       O  0.69237838  0.96269510  0.96663456    -0.70800
O1013       O  0.79507297  0.95958271  0.96650596    -0.70700
O1014       O  0.69509054  0.95424821  0.52555743    -0.70700
O1015       O  0.69736970  0.54309317  0.52855501    -0.70700
O1016       O  0.80230415  0.54809449  0.97153748    -0.70700
O1017       O  0.69946367  0.55153067  0.96991719    -0.70600
O1018       O  0.80069139  0.54129633  0.53013555    -0.70800
V1019       V  0.74542534  0.95899706  0.49606953     1.35200
V1020       V  0.74984368  0.54425022  0.00000382     1.35200
C1021       C  0.81880363  0.99577083  0.53709525     0.78600
C1022       C  0.67790437  0.00915909  0.95839853     0.78700
C1023       C  0.81673835  0.00417527  0.95953349     0.78500
C1024       C  0.67799030  0.99766012  0.53665981     0.78500
C1025       C  0.54361533  0.01557574  0.90053826    -0.04200
C1026       C  0.54193053  0.52918585  0.93173017    -0.01300
C1027       C  0.58609283  0.52713577  0.94995921     0.03700
C1028       C  0.63330012  0.01460089  0.93809466    -0.04200
C1029       C  0.63817253  0.01315075  0.90738677    -0.01300
C1030       C  0.59435472  0.01771255  0.88870886     0.03700
C1031       C  0.49792834  0.55265727  0.94580383     0.38300
C1032       C  0.68809401  0.00468993  0.89495347     0.38300
C1033       C  0.60256569  0.02175825  0.85730997     0.36800
C1034       C  0.58306818  0.54095042  0.98115252     0.36800
N1035       N  0.60978922  0.02503545  0.83236039    -0.38100
N1036       N  0.57959789  0.55355753  0.00565577    -0.38100
N1037       N  0.72770904  0.99710870  0.88495281    -0.37500
N1038       N  0.96445470  0.57264441  0.95791993    -0.37500
C1039       C  0.94410797  0.00314542  0.89883342    -0.04200
C1040       C  0.90238287  0.53970966  0.89495818    -0.01300
C1041       C  0.86212252  0.54116207  0.91540067     0.03700
C1042       C  0.85959456  0.00388081  0.93852846    -0.04200
C1043       C  0.89757395  0.96459199  0.94133146    -0.01300
C1044       C  0.93862738  0.96328372  0.92169891     0.03700
C1045       C  0.89550147  0.57248600  0.86901093     0.38300
C1046       C  0.89655998  0.92732969  0.96595813     0.38300
C1047       C  0.97624951  0.92156484  0.92660288     0.36800
C1048       C  0.82144804  0.58006546  0.91187783     0.36800
N1049       N  0.50471134  0.88746572  0.93175276    -0.38100
N1050       N  0.78913005  0.61106170  0.90904277    -0.38100
N1051       N  0.89598439  0.89785951  0.98559714    -0.37500
N1052       N  0.88763496  0.59892920  0.84863054    -0.37500
C1053       C  0.54988899  0.99739462  0.59814641    -0.04200
C1054       C  0.55238615  0.95787777  0.57417942    -0.01300
C1055       C  0.59325996  0.95882119  0.55405674     0.03700
C1056       C  0.63525675  0.99575032  0.55813152    -0.04200
C1057       C  0.63452183  0.53410025  0.58146403    -0.01300
C1058       C  0.59054515  0.53933943  0.59879560     0.03700
C1059       C  0.51512876  0.91298333  0.57033650     0.38300
C1060       C  0.67952903  0.56916237  0.58766669     0.38300
C1061       C  0.58702771  0.59266240  0.61315608     0.36800
C1062       C  0.59147505  0.92165450  0.52867527     0.36800
N1063       N  0.58596182  0.63624538  0.62356499    -0.38100
N1064       N  0.58968538  0.89219162  0.00843471    -0.38100
N1065       N  0.71546256  0.59672177  0.59271062    -0.37500
N1066       N  0.98753064  0.87574353  0.56593005    -0.37500
C1067       C  0.86431596  0.99400782  0.55768202    -0.04200
C1068       C  0.90582781  0.53139789  0.55459941    -0.01300
C1069       C  0.94832332  0.53218963  0.57447076     0.04900
C1070       C  0.95225417  0.99340656  0.59803067    -0.04200
C1071       C  0.91177226  0.95133839  0.59803469    -0.01300
C1072       C  0.86740140  0.95461987  0.57965165     0.03700
C1073       C  0.90471419  0.57018378  0.53070313     0.38300
C1074       C  0.91544985  0.90022296  0.61360410     0.38300
C1075       C  0.82403410  0.91699274  0.58356132     0.36800
C1076       C  0.98568679  0.57650231  0.57077923     0.36800
N1077       N  0.78940212  0.88729059  0.58677983    -0.38100
N1078       N  0.51301492  0.61328516  0.56612234    -0.38100
N1079       N  0.91660578  0.85831561  0.62508095    -0.37500
N1080       N  0.90360870  0.60135038  0.51186167    -0.37500
C1081       C  0.50211484  0.94578573  0.64229905    -0.04200
C1082       C  0.53972543  0.90328134  0.64335962    -0.01300
C1083       C  0.53771157  0.86214089  0.66496622     0.03700
C1084       C  0.50419588  0.86565433  0.68863859    -0.04200
C1085       C  0.96880890  0.90764247  0.68922469    -0.01300
C1086       C  0.96572972  0.94513636  0.66598393     0.03700
C1087       C  0.58493026  0.90197343  0.62544013     0.38300
C1088       C  0.93534103  0.91285291  0.71427303     0.38300
C1089       C  0.92233494  0.98095834  0.66664506     0.36800
C1090       C  0.57058619  0.81511853  0.66269542     0.36800
N1091       N  0.88623229  0.00701408  0.66861136    -0.38100
N1092       N  0.59646171  0.77759822  0.66075460    -0.38100
N1093       N  0.90878695  0.91705361  0.73421907    -0.37500
N1094       N  0.62272618  0.89856612  0.61272606    -0.37500
C1095       C  0.50376751  0.54796174  0.64213605    -0.04200
C1096       C  0.96690650  0.59108907  0.64292892    -0.01300
C1097       C  0.97278402  0.63586478  0.66307355     0.03700
C1098       C  0.50921233  0.63542336  0.68613484    -0.04200
C1099       C  0.54331009  0.59228062  0.68750307    -0.01300
C1100       C  0.54271258  0.55099482  0.66531467     0.03700
C1101       C  0.91899033  0.58970058  0.62638135     0.38300
C1102       C  0.57889028  0.58947270  0.71238306     0.38300
C1103       C  0.58560047  0.51445247  0.66610473     0.36800
C1104       C  0.94054197  0.68319587  0.66009065     0.36800
N1105       N  0.62154104  0.48804981  0.66795819    -0.38100
N1106       N  0.91513796  0.72095288  0.65766423    -0.38100
N1107       N  0.60690938  0.58689389  0.73227569    -0.37500
N1108       N  0.87935149  0.59090185  0.61465357    -0.37500
C1109       C  0.99603319  0.94205127  0.86471857    -0.04200
C1110       C  0.95158095  0.90889967  0.85549575    -0.01300
C1111       C  0.95646619  0.86464357  0.83508685     0.03700
C1112       C  0.00310466  0.85742122  0.82026756    -0.04200
C1113       C  0.54726762  0.88372064  0.83285244    -0.01300
C1114       C  0.54306162  0.91670366  0.85832744     0.03700
C1115       C  0.89946217  0.92133364  0.86331051     0.38300
C1116       C  0.59801607  0.87325086  0.82215747     0.38300
C1117       C  0.57799443  0.90328849  0.88204489     0.36800
C1118       C  0.91257683  0.82805243  0.82891982     0.36800
N1119       N  0.60596060  0.89047634  0.90054398    -0.38100
N1120       N  0.87757083  0.79892289  0.82425894    -0.38100
N1121       N  0.63873819  0.86527592  0.81381665    -0.37500
N1122       N  0.85720228  0.92939607  0.86872064    -0.37500
C1123       C  0.99496079  0.54880197  0.85492413    -0.04200
C1124       C  0.50948446  0.60505254  0.86235891    -0.01300
C1125       C  0.51874938  0.64437400  0.84045200     0.03700
C1126       C  0.00971799  0.63118944  0.81078379    -0.04200
C1127       C  0.99215217  0.57849821  0.80262628    -0.01300
C1128       C  0.98275536  0.53838436  0.82412039     0.03700
C1129       C  0.51012791  0.62690678  0.89213883     0.38300
C1130       C  0.98070431  0.56653018  0.77161415     0.38300
C1131       C  0.95041305  0.49324198  0.81340883     0.36800
C1132       C  0.53541902  0.70011938  0.84857060     0.36800
N1133       N  0.92309680  0.46125357  0.80176234    -0.38100
N1134       N  0.54870384  0.74434974  0.85510573    -0.38100
N1135       N  0.97098703  0.55692991  0.74709885    -0.37500
N1136       N  0.51117376  0.65044242  0.91446702    -0.37500
loop_ 
_geom_bond_atom_site_label_1 
_geom_bond_atom_site_label_2 
_geom_bond_distance 
_geom_bond_site_symmetry_2 
_ccdc_geom_bond_type 
O1            V9   1.908       .  S
O1          C579   1.267       .  A
O2            V9   1.905       .  S
O2           C12   1.266       .  A
O3            V9   1.903       .  S
O3           C13   1.266       .  A
O4            V9   1.901       .  S
O4          C582   1.263       .  A
O5           V10   1.893       .  S
O5           C14   1.263       .  A
O6           V10   1.897       .  S
O6          C581   1.264       .  A
O7           V10   1.892       .  S
O7          C580   1.263       .  A
O8           V10   1.894       .  S
O8           C11   1.264       .  A
V9          V578   2.085   1_455  T
V10         V577   2.085       .  T
C11         O569   1.267       .  A
C11         C118   1.508       .  S
C12         O575   1.263   1_455  A
C12         C104   1.490       .  S
C13         O574   1.264   1_455  A
C13          C90   1.492       .  S
C14         O572   1.263       .  A
C14         C132   1.478       .  S
C15          C59   1.612       .  S
C15          C87   1.610       .  S
C15         C644   1.618   1_455  S
C15         C385   1.608       .  S
C16         C129   1.605       .  S
C16         C883   1.617       .  S
C16         C329   1.584       .  S
C16         C399   1.619   1_545  S
O17          V25   1.917   1_554  S
O17          C27   1.269       .  A
O18         V167   1.914       .  S
O18          C28   1.267       .  A
O19         V167   1.888       .  S
O19          C29   1.262       .  A
O20          V25   1.899   1_554  S
O20          C30   1.263       .  A
O21         V168   1.905   1_554  S
O21         C314   1.268   1_545  A
O22          V26   1.905       .  S
O22         C313   1.266       .  A
O23          V26   1.896       .  S
O23         C312   1.262       .  A
O24         V168   1.897   1_554  S
O24         C311   1.264   1_545  A
V25         O160   1.914       .  S
V25         O161   1.887       .  S
V25         V452   2.086   1_556  T
V26         O163   1.905       .  S
V26         O166   1.897       .  S
V26         V451   2.086   1_545  T
C27         O308   1.264       .  A
C27          C73   1.503       .  S
C28         O307   1.262       .  A
C28          C34   1.485       .  S
C29         O306   1.266       .  A
C29          C48   1.486       .  S
C30         O305   1.268       .  A
C30          C62   1.498       .  S
C31         C868   1.617   1_455  S
C31          C36   1.441       .  A
C31         C316   1.452       .  A
C32          C33   1.412       .  A
C32         C315   1.452       .  A
C32          C37   1.454   1_455  S
C33         C318   1.399       .  A
C33          C40   1.456       .  S
C34          C35   1.405       .  A
C34         C317   1.399       .  A
C35          C36   1.422       .  A
C35          C38   1.451       .  S
C36          C39   1.453       .  S
C37         N612   1.158       .  T
C38          N43   1.157       .  T
C39          N41   1.158       .  T
C40          N42   1.157       .  T
N44         C605   1.158       .  T
C45         C300   1.584       .  S
C45          C50   1.444       .  A
C45         C330   1.443       .  A
C46          C47   1.418       .  A
C46         C329   1.443       .  A
C46          C51   1.450       .  S
C47         C332   1.405       .  A
C47          C54   1.455       .  S
C48          C49   1.406       .  A
C48         C331   1.405       .  A
C49          C50   1.410       .  A
C49          C52   1.456       .  S
C50          C53   1.454       .  S
C51          N58   1.158       .  T
C52          N57   1.157       .  T
C53         N623   1.157       .  T
C54          N56   1.157       .  T
N55         C621   1.157   1_455  T
C59          C60   1.446       .  A
C59         C348   1.452       .  A
C60          C61   1.420       .  A
C60          C65   1.452       .  S
C61          C62   1.409       .  A
C61          C68   1.455       .  S
C62         C347   1.401       .  A
C63          C64   1.414       .  A
C63         C346   1.401   1_545  A
C63          C66   1.456       .  S
C64         C343   1.452   1_545  A
C64          C67   1.452       .  S
C65         N640   1.157   1_455  T
C66          N71   1.157       .  T
C67          N69   1.158       .  T
C68         N212   1.158       .  T
N70         C210   1.158       .  T
N72         C633   1.157       .  T
C73          C78   1.403       .  A
C73         C358   1.407       .  A
C74          C75   1.419       .  A
C74         C357   1.407   1_545  A
C74          C79   1.455       .  S
C75         C360   1.447   1_545  A
C75          C82   1.452       .  S
C76         C583   1.618       .  S
C76          C77   1.454       .  A
C76         C359   1.447       .  A
C77          C78   1.423       .  A
C77          C80   1.451       .  S
C78          C81   1.455       .  S
C79          N86   1.157       .  T
C80          N85   1.158       .  T
C81          N83   1.157       .  T
C82         N652   1.157       .  T
N84         C650   1.157   1_455  T
C87          C88   1.451       .  A
C87         C660   1.450   1_455  A
C88          C89   1.419       .  A
C88          C93   1.449       .  S
C89          C90   1.404       .  A
C89          C96   1.457       .  S
C90         C659   1.401   1_455  A
C91          C92   1.414       .  A
C91         C658   1.401       .  A
C91          C94   1.455       .  S
C92         C655   1.450       .  A
C92          C95   1.453       .  S
C93         N100   1.158       .  T
C94          N99   1.157       .  T
C95          N97   1.157       .  T
C96          N98   1.157       .  T
C101        C299   1.608   1_545  S
C101        C106   1.452       .  A
C101        C670   1.448   1_455  A
C102        C103   1.417       .  A
C102        C669   1.448       .  A
C102        C107   1.449       .  S
C103        C672   1.404       .  A
C103        C110   1.457       .  S
C104        C105   1.401       .  A
C104        C671   1.404   1_455  A
C105        C106   1.413       .  A
C105        C108   1.456       .  S
C106        C109   1.453       .  S
C107        N114   1.158       .  T
C108        N113   1.158       .  T
C109        N111   1.157   1_545  T
C110        N112   1.157       .  T
C115        C300   1.619       .  S
C115        C116   1.449       .  A
C115        C688   1.425       .  A
C116        C117   1.422       .  A
C116        C121   1.454       .  S
C117        C118   1.418       .  A
C117        C124   1.455       .  S
C118        C687   1.412       .  A
C119        C120   1.407       .  A
C119        C686   1.412       .  A
C119        C122   1.450       .  S
C120        C683   1.425   1_455  A
C120        C123   1.449       .  S
C121        N128   1.158       .  T
C122        N127   1.157       .  T
C123        N125   1.158       .  T
C124        N126   1.158       .  T
C129        C134   1.448       .  A
C129        C698   1.448       .  A
C130        C131   1.416       .  A
C130        C697   1.448   1_455  A
C130        C135   1.446       .  S
C131        C700   1.396       .  A
C131        C138   1.457       .  S
C132        C133   1.396       .  A
C132        C699   1.396       .  A
C133        C134   1.417       .  A
C133        C136   1.459       .  S
C134        C137   1.443   1_545  S
C135        N142   1.157       .  T
C136        N141   1.157       .  T
C137        N139   1.158       .  T
C138        N140   1.157       .  T
O143        V151   1.907       .  S
O143        C721   1.267       .  A
O144        V151   1.905       .  S
O144        C154   1.266       .  A
O145        V151   1.903       .  S
O145        C155   1.266       .  A
O146        V151   1.901       .  S
O146        C724   1.263       .  A
O147        V152   1.893       .  S
O147        C156   1.263       .  A
O148        V152   1.897       .  S
O148        C723   1.263       .  A
O149        V152   1.892       .  S
O149        C722   1.263       .  A
O150        V152   1.894       .  S
O150        C153   1.264       .  A
V151        V720   2.085   1_455  T
V152        V719   2.085       .  T
C153        O711   1.267       .  A
C153        C260   1.508       .  S
C154        O717   1.263   1_455  A
C154        C246   1.491       .  S
C155        O716   1.263   1_455  A
C155        C232   1.492       .  S
C156        O714   1.263       .  A
C156        C274   1.478       .  S
C157        C201   1.612       .  S
C157        C786   1.618   1_455  S
C157        C229   1.610       .  S
C157        C527   1.608       .  S
C158       C1025   1.617       .  S
C158        C471   1.584       .  S
C158        C541   1.619   1_545  S
C158        C271   1.606       .  S
O159        V167   1.917       .  S
O159        C169   1.269       .  A
O160        C170   1.267       .  A
O161        C171   1.262       .  A
O162        V167   1.899       .  S
O162        C172   1.263       .  A
O163        C456   1.268   1_545  A
O164        V168   1.905       .  S
O164        C455   1.266       .  A
O165        V168   1.896       .  S
O165        C454   1.262       .  A
O166        C453   1.264   1_545  A
V167        V310   2.086       .  T
V168        V309   2.086   1_545  T
C169        O450   1.264       .  A
C169        C215   1.503       .  S
C170        O449   1.262       .  A
C170        C176   1.485       .  S
C171        O448   1.266       .  A
C171        C190   1.486       .  S
C172        O447   1.268       .  A
C172        C204   1.498       .  S
C173       C1010   1.617   1_455  S
C173        C458   1.452       .  A
C173        C178   1.441       .  A
C174        C457   1.452       .  A
C174        C175   1.412       .  A
C174        C179   1.454   1_455  S
C175        C460   1.399       .  A
C175        C182   1.456       .  S
C176        C459   1.399       .  A
C176        C177   1.405       .  A
C177        C178   1.422       .  A
C177        C180   1.451       .  S
C178        C181   1.453       .  S
C179        N754   1.158       .  T
C180        N185   1.157       .  T
C181        N183   1.158       .  T
C182        N184   1.157   1_556  T
N186        C747   1.158       .  T
C187        C442   1.584       .  S
C187        C472   1.443       .  A
C187        C192   1.444       .  A
C188        C471   1.443       .  A
C188        C189   1.418       .  A
C188        C193   1.450       .  S
C189        C474   1.405       .  A
C189        C196   1.455       .  S
C190        C473   1.405       .  A
C190        C191   1.406       .  A
C191        C192   1.410       .  A
C191        C194   1.456       .  S
C192        C195   1.454       .  S
C193        N200   1.158       .  T
C194        N199   1.157       .  T
C195        N765   1.157       .  T
C196        N198   1.157       .  T
N197        C763   1.157   1_455  T
C201        C202   1.446       .  A
C201        C490   1.452       .  A
C202        C203   1.420       .  A
C202        C207   1.452       .  S
C203        C204   1.409       .  A
C203        C210   1.455       .  S
C204        C489   1.401       .  A
C205        C488   1.401   1_545  A
C205        C206   1.414       .  A
C205        C208   1.456       .  S
C206        C485   1.452   1_545  A
C206        C209   1.452       .  S
C207        N782   1.157   1_455  T
C208        N213   1.157       .  T
C209        N211   1.158       .  T
N214        C775   1.157       .  T
C215        C500   1.407       .  A
C215        C220   1.403       .  A
C216        C499   1.407   1_545  A
C216        C217   1.419       .  A
C216        C221   1.455       .  S
C217        C502   1.447   1_545  A
C217        C224   1.452       .  S
C218        C725   1.618       .  S
C218        C501   1.447       .  A
C218        C219   1.454       .  A
C219        C220   1.423       .  A
C219        C222   1.451       .  S
C220        C223   1.455       .  S
C221        N228   1.157       .  T
C222        N227   1.158       .  T
C223        N225   1.157       .  T
C224        N794   1.157       .  T
N226        C792   1.157   1_455  T
C229        C230   1.451       .  A
C229        C802   1.450   1_455  A
C230        C231   1.419       .  A
C230        C235   1.449       .  S
C231        C232   1.404       .  A
C231        C238   1.457       .  S
C232        C801   1.401   1_455  A
C233        C800   1.401       .  A
C233        C234   1.414       .  A
C233        C236   1.455       .  S
C234        C797   1.450       .  A
C234        C237   1.453       .  S
C235        N242   1.158       .  T
C236        N241   1.157       .  T
C237        N239   1.157       .  T
C238        N240   1.157       .  T
C243        C441   1.608   1_545  S
C243        C812   1.448   1_455  A
C243        C248   1.452       .  A
C244        C811   1.448       .  A
C244        C245   1.417       .  A
C244        C249   1.449       .  S
C245        C814   1.404       .  A
C245        C252   1.457       .  S
C246        C813   1.404   1_455  A
C246        C247   1.401       .  A
C247        C248   1.413       .  A
C247        C250   1.456       .  S
C248        C251   1.453       .  S
C249        N256   1.158       .  T
C250        N255   1.158       .  T
C251        N253   1.157   1_545  T
C252        N254   1.157       .  T
C257        C442   1.619       .  S
C257        C258   1.449       .  A
C257        C830   1.424       .  A
C258        C259   1.422       .  A
C258        C263   1.454       .  S
C259        C260   1.418       .  A
C259        C266   1.455       .  S
C260        C829   1.412       .  A
C261        C828   1.412       .  A
C261        C262   1.407       .  A
C261        C264   1.450       .  S
C262        C825   1.424   1_455  A
C262        C265   1.449       .  S
C263        N270   1.158       .  T
C264        N269   1.157       .  T
C265        N267   1.158       .  T
C266        N268   1.158       .  T
C271        C840   1.448       .  A
C271        C276   1.448       .  A
C272        C839   1.448   1_455  A
C272        C273   1.416       .  A
C272        C277   1.446       .  S
C273        C842   1.396       .  A
C273        C280   1.457       .  S
C274        C841   1.396       .  A
C274        C275   1.396       .  A
C275        C276   1.417       .  A
C275        C278   1.459       .  S
C276        C279   1.443   1_545  S
C277        N284   1.157       .  T
C278        N283   1.157       .  T
C279        N281   1.158       .  T
C280        N282   1.157       .  T
O285        V293   1.907       .  S
O285        C863   1.267       .  A
O286        V293   1.905       .  S
O286        C296   1.266       .  A
O287        V293   1.903       .  S
O287        C297   1.266       .  A
O288        V293   1.901       .  S
O288        C866   1.263       .  A
O289        V294   1.893       .  S
O289        C298   1.263       .  A
O290        V294   1.897       .  S
O290        C865   1.263       .  A
O291        V294   1.892       .  S
O291        C864   1.263       .  A
O292        V294   1.894       .  S
O292        C295   1.264       .  A
V293        V862   2.085   1_455  T
V294        V861   2.085       .  T
C295        O853   1.267       .  A
C295        C402   1.508       .  S
C296        O859   1.263   1_455  A
C296        C388   1.490       .  S
C297        O858   1.263   1_455  A
C297        C374   1.492       .  S
C298        O856   1.263       .  A
C298        C416   1.478       .  S
C299        C343   1.612       .  S
C299        C928   1.618   1_455  S
C299        C371   1.610       .  S
C300        C599   1.617       .  S
C300        C413   1.606       .  S
O301        V309   1.917   1_554  S
O301        C311   1.269       .  A
O302        V451   1.914       .  S
O302        C312   1.267   1_565  A
O303        V451   1.888       .  S
O303        C313   1.262   1_565  A
O304        V309   1.899   1_554  S
O304        C314   1.263       .  A
O305        V452   1.905       .  S
O306        V310   1.905       .  S
O307        V310   1.896       .  S
O308        V452   1.897       .  S
V309        O444   1.914       .  S
V309        O445   1.888       .  S
V310        O447   1.905       .  S
V310        O450   1.897       .  S
C311        C357   1.503       .  S
C312        C318   1.485       .  S
C313        C332   1.486       .  S
C314        C346   1.498       .  S
C315        C584   1.617   1_455  S
C315        C320   1.441       .  A
C316        C317   1.412       .  A
C316        C321   1.454   1_455  S
C317        C324   1.456       .  S
C318        C319   1.405       .  A
C319        C320   1.422       .  A
C319        C322   1.451       .  S
C320        C323   1.453       .  S
C321        N896   1.158       .  T
C322        N327   1.157   1_545  T
C323        N325   1.158       .  T
C324        N326   1.157       .  T
N328        C889   1.158       .  T
C329        C334   1.444   1_545  A
C330        C331   1.418       .  A
C330        C335   1.449       .  S
C331        C338   1.455       .  S
C332        C333   1.406   1_545  A
C333        C334   1.410       .  A
C333        C336   1.456       .  S
C334        C337   1.454       .  S
C335        N342   1.158       .  T
C336        N341   1.157       .  T
C337        N907   1.157       .  T
C338        N340   1.157       .  T
N339        C905   1.157   1_455  T
C343        C344   1.446       .  A
C344        C345   1.420       .  A
C344        C349   1.452       .  S
C345        C346   1.409       .  A
C345        C352   1.455       .  S
C347        C348   1.413       .  A
C347        C350   1.456       .  S
C348        C351   1.452       .  S
C349        N924   1.157   1_455  T
C350        N355   1.157       .  T
C351        N353   1.158       .  T
C352        N496   1.158       .  T
N354        C494   1.158       .  T
N356        C917   1.157       .  T
C357        C362   1.403       .  A
C358        C359   1.419       .  A
C358        C363   1.455       .  S
C359        C366   1.452       .  S
C360        C867   1.618       .  S
C360        C361   1.454       .  A
C361        C362   1.423       .  A
C361        C364   1.451       .  S
C362        C365   1.455       .  S
C363        N370   1.157       .  T
C364        N369   1.158       .  T
C365        N367   1.157       .  T
C366        N936   1.157       .  T
N368        C934   1.157   1_455  T
C371        C372   1.451       .  A
C371        C944   1.450   1_455  A
C372        C373   1.419       .  A
C372        C377   1.449       .  S
C373        C374   1.404       .  A
C373        C380   1.457       .  S
C374        C943   1.401   1_455  A
C375        C942   1.401       .  A
C375        C376   1.414       .  A
C375        C378   1.455       .  S
C376        C939   1.450       .  A
C376        C379   1.453       .  S
C377        N384   1.158       .  T
C378        N383   1.157       .  T
C379        N381   1.157   1_565  T
C380        N382   1.157       .  T
C385        C954   1.448   1_455  A
C385        C390   1.452       .  A
C386        C953   1.448       .  A
C386        C387   1.417       .  A
C386        C391   1.449       .  S
C387        C956   1.404       .  A
C387        C394   1.457       .  S
C388        C955   1.404   1_455  A
C388        C389   1.401       .  A
C389        C390   1.413       .  A
C389        C392   1.456       .  S
C390        C393   1.453       .  S
C391        N398   1.158       .  T
C392        N397   1.158       .  T
C393        N395   1.157       .  T
C394        N396   1.157       .  T
C399        C400   1.449       .  A
C399        C972   1.424       .  A
C400        C401   1.422       .  A
C400        C405   1.454       .  S
C401        C402   1.418       .  A
C401        C408   1.455       .  S
C402        C971   1.412       .  A
C403        C970   1.412       .  A
C403        C404   1.407       .  A
C403        C406   1.450       .  S
C404        C967   1.424   1_455  A
C404        C407   1.449       .  S
C405        N412   1.158       .  T
C406        N411   1.157       .  T
C407        N409   1.158       .  T
C408        N410   1.158       .  T
C413        C982   1.448       .  A
C413        C418   1.448       .  A
C414        C981   1.448   1_455  A
C414        C415   1.416       .  A
C414        C419   1.446       .  S
C415        C984   1.396       .  A
C415        C422   1.457       .  S
C416        C983   1.396       .  A
C416        C417   1.396       .  A
C417        C418   1.417       .  A
C417        C420   1.459       .  S
C418        C421   1.443       .  S
C419        N426   1.157       .  T
C420        N425   1.157       .  T
C421        N423   1.158       .  T
C422        N424   1.157       .  T
O427        V435   1.907       .  S
O427       C1005   1.267       .  A
O428        V435   1.905       .  S
O428        C438   1.266       .  A
O429        V435   1.903       .  S
O429        C439   1.266       .  A
O430        V435   1.901       .  S
O430       C1008   1.263       .  A
O431        V436   1.893       .  S
O431        C440   1.263       .  A
O432        V436   1.897       .  S
O432       C1007   1.264       .  A
O433        V436   1.892       .  S
O433       C1006   1.263       .  A
O434        V436   1.894       .  S
O434        C437   1.264       .  A
V435       V1004   2.085   1_455  T
V436       V1003   2.085       .  T
C437        O995   1.267       .  A
C437        C544   1.508       .  S
C438       O1001   1.263   1_455  A
C438        C530   1.490       .  S
C439       O1000   1.264   1_455  A
C439        C516   1.492       .  S
C440        O998   1.263       .  A
C440        C558   1.478       .  S
C441        C485   1.612       .  S
C441       C1070   1.618   1_455  S
C441        C513   1.610       .  S
C442        C741   1.617       .  S
C442        C555   1.605       .  S
O443        V451   1.917       .  S
O443        C453   1.269       .  A
O444        C454   1.267   1_565  A
O445        C455   1.262   1_565  A
O446        V451   1.899       .  S
O446        C456   1.263       .  A
O448        V452   1.905   1_556  S
O449        V452   1.896   1_556  S
C453        C499   1.503       .  S
C454        C460   1.485       .  S
C455        C474   1.486       .  S
C456        C488   1.498       .  S
C457        C726   1.617   1_455  S
C457        C462   1.441       .  A
C458        C459   1.412       .  A
C458        C463   1.454   1_455  S
C459        C466   1.456       .  S
C460        C461   1.405       .  A
C461        C462   1.422       .  A
C461        C464   1.451       .  S
C462        C465   1.453       .  S
C463       N1038   1.158       .  T
C464        N469   1.157   1_545  T
C465        N467   1.158       .  T
C466        N468   1.157   1_556  T
N470       C1031   1.158       .  T
C471        C476   1.444   1_545  A
C472        C473   1.418       .  A
C472        C477   1.450       .  S
C473        C480   1.455       .  S
C474        C475   1.406   1_545  A
C475        C476   1.410       .  A
C475        C478   1.456       .  S
C476        C479   1.454       .  S
C477        N484   1.158       .  T
C478        N483   1.157       .  T
C479       N1049   1.157       .  T
C480        N482   1.157       .  T
N481       C1047   1.157   1_455  T
C485        C486   1.446       .  A
C486        C487   1.420       .  A
C486        C491   1.452       .  S
C487        C488   1.409       .  A
C487        C494   1.455       .  S
C489        C490   1.414       .  A
C489        C492   1.456       .  S
C490        C493   1.452       .  S
C491       N1066   1.157   1_455  T
C492        N497   1.157       .  T
C493        N495   1.158       .  T
N498       C1059   1.157       .  T
C499        C504   1.403       .  A
C500        C501   1.419       .  A
C500        C505   1.455       .  S
C501        C508   1.452       .  S
C502       C1009   1.618       .  S
C502        C503   1.454       .  A
C503        C504   1.423       .  A
C503        C506   1.451       .  S
C504        C507   1.455       .  S
C505        N512   1.157       .  T
C506        N511   1.158       .  T
C507        N509   1.157       .  T
C508       N1078   1.157       .  T
N510       C1076   1.157   1_455  T
C513        C514   1.451       .  A
C513       C1086   1.450   1_455  A
C514        C515   1.419       .  A
C514        C519   1.449       .  S
C515        C516   1.404       .  A
C515        C522   1.457       .  S
C516       C1085   1.401   1_455  A
C517       C1084   1.401       .  A
C517        C518   1.414       .  A
C517        C520   1.455       .  S
C518       C1081   1.450       .  A
C518        C521   1.453       .  S
C519        N526   1.158       .  T
C520        N525   1.157       .  T
C521        N523   1.157   1_565  T
C522        N524   1.157       .  T
C527       C1096   1.448   1_455  A
C527        C532   1.452       .  A
C528       C1095   1.448       .  A
C528        C529   1.417       .  A
C528        C533   1.449       .  S
C529       C1098   1.404       .  A
C529        C536   1.457       .  S
C530       C1097   1.404   1_455  A
C530        C531   1.401       .  A
C531        C532   1.413       .  A
C531        C534   1.456       .  S
C532        C535   1.453       .  S
C533        N540   1.158       .  T
C534        N539   1.158       .  T
C535        N537   1.157       .  T
C536        N538   1.157       .  T
C541        C542   1.449       .  A
C541       C1114   1.425       .  A
C542        C543   1.422       .  A
C542        C547   1.454       .  S
C543        C544   1.418       .  A
C543        C550   1.455       .  S
C544       C1113   1.412       .  A
C545       C1112   1.412       .  A
C545        C546   1.407       .  A
C545        C548   1.450       .  S
C546       C1109   1.425   1_455  A
C546        C549   1.449       .  S
C547        N554   1.158       .  T
C548        N553   1.157       .  T
C549        N551   1.158       .  T
C550        N552   1.158       .  T
C555       C1124   1.448       .  A
C555        C560   1.448       .  A
C556       C1123   1.448   1_455  A
C556        C557   1.416       .  A
C556        C561   1.446       .  S
C557       C1126   1.396       .  A
C557        C564   1.457       .  S
C558       C1125   1.396       .  A
C558        C559   1.396       .  A
C559        C560   1.417       .  A
C559        C562   1.459       .  S
C560        C563   1.443       .  S
C561        N568   1.157       .  T
C562        N567   1.157       .  T
C563        N565   1.158       .  T
C564        N566   1.157       .  T
O569        V577   1.908       .  S
O570        V577   1.905       .  S
O570        C580   1.266       .  A
O571        V577   1.903       .  S
O571        C581   1.266       .  A
O572        V577   1.901       .  S
O573        V578   1.893       .  S
O573        C582   1.263   1_655  A
O574        V578   1.897       .  S
O575        V578   1.892       .  S
O576        V578   1.894       .  S
O576        C579   1.264   1_655  A
C579        C686   1.508       .  S
C580        C672   1.490       .  S
C581        C658   1.492       .  S
C582        C700   1.478       .  S
C583        C627   1.612       .  S
C583        C655   1.610       .  S
C583        C953   1.608       .  S
C584        C897   1.584       .  S
C584        C967   1.619   1_545  S
C584        C697   1.605       .  S
O585        V593   1.917   1_554  S
O585        C595   1.269       .  A
O586        V735   1.914       .  S
O586        C596   1.267       .  A
O587        V735   1.888       .  S
O587        C597   1.262       .  A
O588        V593   1.899   1_554  S
O588        C598   1.263       .  A
O589        V736   1.905   1_554  S
O589        C882   1.268   1_545  A
O590        V594   1.905       .  S
O590        C881   1.266       .  A
O591        V594   1.896       .  S
O591        C880   1.262       .  A
O592        V736   1.897   1_554  S
O592        C879   1.264   1_545  A
V593        O728   1.914       .  S
V593        O729   1.887       .  S
V593       V1020   2.086   1_556  T
V594        O731   1.905       .  S
V594        O734   1.897       .  S
V594       V1019   2.086   1_545  T
C595        O876   1.264       .  A
C595        C641   1.503       .  S
C596        O875   1.262       .  A
C596        C602   1.485       .  S
C597        O874   1.266       .  A
C597        C616   1.486       .  S
C598        O873   1.268       .  A
C598        C630   1.498       .  S
C599        C884   1.452       .  A
C599        C604   1.441       .  A
C600        C883   1.452       .  A
C600        C601   1.412       .  A
C600        C605   1.454       .  S
C601        C886   1.399       .  A
C601        C608   1.456       .  S
C602        C885   1.399       .  A
C602        C603   1.405       .  A
C603        C604   1.422       .  A
C603        C606   1.451       .  S
C604        C607   1.453       .  S
C606        N611   1.157       .  T
C607        N609   1.158       .  T
C608        N610   1.157       .  T
C613        C868   1.584       .  S
C613        C898   1.443       .  A
C613        C618   1.444       .  A
C614        C897   1.443       .  A
C614        C615   1.418       .  A
C614        C619   1.450       .  S
C615        C900   1.405       .  A
C615        C622   1.455       .  S
C616        C899   1.405       .  A
C616        C617   1.406       .  A
C617        C618   1.410       .  A
C617        C620   1.456       .  S
C618        C621   1.454       .  S
C619        N626   1.158       .  T
C620        N625   1.157       .  T
C622        N624   1.157       .  T
C627        C628   1.446       .  A
C627        C916   1.452       .  A
C628        C629   1.420       .  A
C628        C633   1.452       .  S
C629        C630   1.409       .  A
C629        C636   1.455       .  S
C630        C915   1.401       .  A
C631        C914   1.401   1_545  A
C631        C632   1.414       .  A
C631        C634   1.456       .  S
C632        C911   1.452   1_545  A
C632        C635   1.452       .  S
C634        N639   1.157       .  T
C635        N637   1.158       .  T
C636        N780   1.158       .  T
N638        C778   1.158       .  T
C641        C926   1.407       .  A
C641        C646   1.403       .  A
C642        C925   1.407   1_545  A
C642        C643   1.419       .  A
C642        C647   1.455       .  S
C643        C928   1.447   1_545  A
C643        C650   1.452       .  S
C644        C927   1.447       .  A
C644        C645   1.454       .  A
C645        C646   1.423       .  A
C645        C648   1.451       .  S
C646        C649   1.455       .  S
C647        N654   1.157       .  T
C648        N653   1.158       .  T
C649        N651   1.157       .  T
C655        C656   1.451       .  A
C656        C657   1.419       .  A
C656        C661   1.449       .  S
C657        C658   1.404       .  A
C657        C664   1.457       .  S
C659        C660   1.414       .  A
C659        C662   1.455       .  S
C660        C663   1.453       .  S
C661        N668   1.158       .  T
C662        N667   1.157       .  T
C663        N665   1.157       .  T
C664        N666   1.157       .  T
C669        C867   1.608   1_545  S
C669        C674   1.452       .  A
C670        C671   1.417       .  A
C670        C675   1.449       .  S
C671        C678   1.457       .  S
C672        C673   1.401       .  A
C673        C674   1.413       .  A
C673        C676   1.456       .  S
C674        C677   1.453       .  S
C675        N682   1.158       .  T
C676        N681   1.158       .  T
C677        N679   1.157   1_545  T
C678        N680   1.157       .  T
C683        C868   1.619       .  S
C683        C684   1.449       .  A
C684        C685   1.422       .  A
C684        C689   1.454       .  S
C685        C686   1.418   1_655  A
C685        C692   1.455       .  S
C687        C688   1.407       .  A
C687        C690   1.450       .  S
C688        C691   1.449       .  S
C689        N696   1.158       .  T
C690        N695   1.157       .  T
C691        N693   1.158       .  T
C692        N694   1.158       .  T
C697        C702   1.448       .  A
C698        C699   1.416       .  A
C698        C703   1.446       .  S
C699        C706   1.457       .  S
C700        C701   1.396   1_455  A
C701        C702   1.417       .  A
C701        C704   1.459       .  S
C702        C705   1.443   1_545  S
C703        N710   1.157       .  T
C704        N709   1.157       .  T
C705        N707   1.158       .  T
C706        N708   1.157       .  T
O711        V719   1.907       .  S
O712        V719   1.905       .  S
O712        C722   1.266       .  A
O713        V719   1.903       .  S
O713        C723   1.266       .  A
O714        V719   1.901       .  S
O715        V720   1.893       .  S
O715        C724   1.263   1_655  A
O716        V720   1.897       .  S
O717        V720   1.892       .  S
O718        V720   1.894       .  S
O718        C721   1.264   1_655  A
C721        C828   1.508       .  S
C722        C814   1.491       .  S
C723        C800   1.492       .  S
C724        C842   1.478       .  S
C725        C769   1.612       .  S
C725        C797   1.610       .  S
C725       C1095   1.608       .  S
C726       C1039   1.584       .  S
C726       C1109   1.619   1_545  S
C726        C839   1.606       .  S
O727        V735   1.917       .  S
O727        C737   1.269       .  A
O728        C738   1.267       .  A
O729        C739   1.262       .  A
O730        V735   1.899       .  S
O730        C740   1.263       .  A
O731       C1024   1.268   1_545  A
O732        V736   1.905       .  S
O732       C1023   1.266       .  A
O733        V736   1.896       .  S
O733       C1022   1.262       .  A
O734       C1021   1.264   1_545  A
V735        V878   2.086       .  T
V736        V877   2.086   1_545  T
C737       O1018   1.264       .  A
C737        C783   1.503       .  S
C738       O1017   1.262       .  A
C738        C744   1.485       .  S
C739       O1016   1.266       .  A
C739        C758   1.486       .  S
C740       O1015   1.268       .  A
C740        C772   1.498       .  S
C741       C1026   1.452       .  A
C741        C746   1.441       .  A
C742       C1025   1.452       .  A
C742        C743   1.412       .  A
C742        C747   1.454       .  S
C743       C1028   1.399       .  A
C743        C750   1.456       .  S
C744       C1027   1.399       .  A
C744        C745   1.405       .  A
C745        C746   1.422       .  A
C745        C748   1.451       .  S
C746        C749   1.453       .  S
C748        N753   1.157       .  T
C749        N751   1.158       .  T
C750        N752   1.157   1_556  T
C755       C1010   1.584       .  S
C755       C1040   1.443       .  A
C755        C760   1.444       .  A
C756       C1039   1.443       .  A
C756        C757   1.418       .  A
C756        C761   1.450       .  S
C757       C1042   1.405       .  A
C757        C764   1.455       .  S
C758       C1041   1.405       .  A
C758        C759   1.406       .  A
C759        C760   1.410       .  A
C759        C762   1.456       .  S
C760        C763   1.454       .  S
C761        N768   1.158       .  T
C762        N767   1.157       .  T
C764        N766   1.157       .  T
C769        C770   1.446       .  A
C769       C1058   1.452       .  A
C770        C771   1.420       .  A
C770        C775   1.452       .  S
C771        C772   1.409       .  A
C771        C778   1.455       .  S
C772       C1057   1.401       .  A
C773       C1056   1.401   1_545  A
C773        C774   1.414       .  A
C773        C776   1.456       .  S
C774       C1053   1.452   1_545  A
C774        C777   1.452       .  S
C776        N781   1.157       .  T
C777        N779   1.158       .  T
C783       C1068   1.407       .  A
C783        C788   1.403       .  A
C784       C1067   1.407   1_545  A
C784        C785   1.419       .  A
C784        C789   1.455       .  S
C785       C1070   1.447   1_545  A
C785        C792   1.452       .  S
C786       C1069   1.447       .  A
C786        C787   1.454       .  A
C787        C788   1.423       .  A
C787        C790   1.451       .  S
C788        C791   1.455       .  S
C789        N796   1.157       .  T
C790        N795   1.158       .  T
C791        N793   1.157       .  T
C797        C798   1.451       .  A
C798        C799   1.419       .  A
C798        C803   1.449       .  S
C799        C800   1.404       .  A
C799        C806   1.457       .  S
C801        C802   1.414       .  A
C801        C804   1.455       .  S
C802        C805   1.453       .  S
C803        N810   1.158       .  T
C804        N809   1.157       .  T
C805        N807   1.157       .  T
C806        N808   1.157       .  T
C811       C1009   1.608   1_545  S
C811        C816   1.452       .  A
C812        C813   1.417       .  A
C812        C817   1.449       .  S
C813        C820   1.457       .  S
C814        C815   1.401       .  A
C815        C816   1.413       .  A
C815        C818   1.456       .  S
C816        C819   1.453       .  S
C817        N824   1.158       .  T
C818        N823   1.158       .  T
C819        N821   1.157   1_545  T
C820        N822   1.157       .  T
C825       C1010   1.619       .  S
C825        C826   1.449       .  A
C826        C827   1.422       .  A
C826        C831   1.454       .  S
C827        C828   1.418   1_655  A
C827        C834   1.455       .  S
C829        C830   1.407       .  A
C829        C832   1.450       .  S
C830        C833   1.449       .  S
C831        N838   1.158       .  T
C832        N837   1.157       .  T
C833        N835   1.158       .  T
C834        N836   1.158       .  T
C839        C844   1.448       .  A
C840        C841   1.416       .  A
C840        C845   1.446       .  S
C841        C848   1.457       .  S
C842        C843   1.396   1_455  A
C843        C844   1.417       .  A
C843        C846   1.459       .  S
C844        C847   1.443   1_545  S
C845        N852   1.157       .  T
C846        N851   1.157       .  T
C847        N849   1.158       .  T
C848        N850   1.157       .  T
O853        V861   1.907       .  S
O854        V861   1.905       .  S
O854        C864   1.266       .  A
O855        V861   1.903       .  S
O855        C865   1.266       .  A
O856        V861   1.901       .  S
O857        V862   1.893       .  S
O857        C866   1.263   1_655  A
O858        V862   1.897       .  S
O859        V862   1.892       .  S
O860        V862   1.894       .  S
O860        C863   1.264   1_655  A
C863        C970   1.508       .  S
C864        C956   1.490       .  S
C865        C942   1.492       .  S
C866        C984   1.478       .  S
C867        C911   1.612       .  S
C867        C939   1.610       .  S
C868        C981   1.606       .  S
O869        V877   1.917   1_554  S
O869        C879   1.269       .  A
O870       V1019   1.914       .  S
O870        C880   1.267   1_565  A
O871       V1019   1.888       .  S
O871        C881   1.262   1_565  A
O872        V877   1.899   1_554  S
O872        C882   1.263       .  A
O873       V1020   1.905       .  S
O874        V878   1.905       .  S
O875        V878   1.896       .  S
O876       V1020   1.897       .  S
V877       O1012   1.914       .  S
V877       O1013   1.888       .  S
V878       O1015   1.905       .  S
V878       O1018   1.897       .  S
C879        C925   1.503       .  S
C880        C886   1.485       .  S
C881        C900   1.486       .  S
C882        C914   1.498       .  S
C883        C888   1.441       .  A
C884        C885   1.412       .  A
C884        C889   1.454       .  S
C885        C892   1.456       .  S
C886        C887   1.405       .  A
C887        C888   1.422       .  A
C887        C890   1.451       .  S
C888        C891   1.453       .  S
C890        N895   1.157   1_545  T
C891        N893   1.158       .  T
C892        N894   1.157       .  T
C897        C902   1.444   1_545  A
C898        C899   1.418       .  A
C898        C903   1.450       .  S
C899        C906   1.455       .  S
C900        C901   1.406   1_545  A
C901        C902   1.410       .  A
C901        C904   1.456       .  S
C902        C905   1.454       .  S
C903        N910   1.158       .  T
C904        N909   1.157       .  T
C906        N908   1.157       .  T
C911        C912   1.446       .  A
C912        C913   1.420       .  A
C912        C917   1.452       .  S
C913        C914   1.409       .  A
C913        C920   1.455       .  S
C915        C916   1.413       .  A
C915        C918   1.456       .  S
C916        C919   1.452       .  S
C918        N923   1.157       .  T
C919        N921   1.158       .  T
C920       N1064   1.158       .  T
N922       C1062   1.158       .  T
C925        C930   1.403       .  A
C926        C927   1.419       .  A
C926        C931   1.455       .  S
C927        C934   1.452       .  S
C928        C929   1.454       .  A
C929        C930   1.423       .  A
C929        C932   1.451       .  S
C930        C933   1.455       .  S
C931        N938   1.157       .  T
C932        N937   1.158       .  T
C933        N935   1.157       .  T
C939        C940   1.451       .  A
C940        C941   1.419       .  A
C940        C945   1.449       .  S
C941        C942   1.404       .  A
C941        C948   1.457       .  S
C943        C944   1.414       .  A
C943        C946   1.455       .  S
C944        C947   1.453       .  S
C945        N952   1.158       .  T
C946        N951   1.157       .  T
C947        N949   1.157   1_565  T
C948        N950   1.157       .  T
C953        C958   1.452       .  A
C954        C955   1.417       .  A
C954        C959   1.449       .  S
C955        C962   1.457       .  S
C956        C957   1.401       .  A
C957        C958   1.413       .  A
C957        C960   1.456       .  S
C958        C961   1.453       .  S
C959        N966   1.158       .  T
C960        N965   1.158       .  T
C961        N963   1.157       .  T
C962        N964   1.157       .  T
C967        C968   1.449       .  A
C968        C969   1.422       .  A
C968        C973   1.454       .  S
C969        C970   1.418   1_655  A
C969        C976   1.455       .  S
C971        C972   1.407       .  A
C971        C974   1.450       .  S
C972        C975   1.449       .  S
C973        N980   1.158       .  T
C974        N979   1.157       .  T
C975        N977   1.158       .  T
C976        N978   1.158       .  T
C981        C986   1.448       .  A
C982        C983   1.416       .  A
C982        C987   1.446       .  S
C983        C990   1.457       .  S
C984        C985   1.396   1_455  A
C985        C986   1.417       .  A
C985        C988   1.459       .  S
C986        C989   1.443       .  S
C987        N994   1.157       .  T
C988        N993   1.157       .  T
C989        N991   1.158       .  T
C990        N992   1.157       .  T
O995       V1003   1.907       .  S
O996       V1003   1.905       .  S
O996       C1006   1.266       .  A
O997       V1003   1.903       .  S
O997       C1007   1.266       .  A
O998       V1003   1.901       .  S
O999       V1004   1.893       .  S
O999       C1008   1.263   1_655  A
O1000      V1004   1.897       .  S
O1001      V1004   1.892       .  S
O1002      V1004   1.894       .  S
O1002      C1005   1.264   1_655  A
C1005      C1112   1.508       .  S
C1006      C1098   1.490       .  S
C1007      C1084   1.492       .  S
C1008      C1126   1.478       .  S
C1009      C1053   1.612       .  S
C1009      C1081   1.610       .  S
C1010      C1123   1.605       .  S
O1011      V1019   1.917       .  S
O1011      C1021   1.269       .  A
O1012      C1022   1.267   1_565  A
O1013      C1023   1.262   1_565  A
O1014      V1019   1.899       .  S
O1014      C1024   1.263       .  A
O1016      V1020   1.905   1_556  S
O1017      V1020   1.896   1_556  S
C1021      C1067   1.503       .  S
C1022      C1028   1.485       .  S
C1023      C1042   1.486       .  S
C1024      C1056   1.498       .  S
C1025      C1030   1.441       .  A
C1026      C1027   1.412       .  A
C1026      C1031   1.454       .  S
C1027      C1034   1.456       .  S
C1028      C1029   1.405       .  A
C1029      C1030   1.422       .  A
C1029      C1032   1.451       .  S
C1030      C1033   1.453       .  S
C1032      N1037   1.157   1_545  T
C1033      N1035   1.158       .  T
C1034      N1036   1.157   1_556  T
C1039      C1044   1.444   1_545  A
C1040      C1041   1.418       .  A
C1040      C1045   1.450       .  S
C1041      C1048   1.455       .  S
C1042      C1043   1.406   1_545  A
C1043      C1044   1.410       .  A
C1043      C1046   1.456       .  S
C1044      C1047   1.454       .  S
C1045      N1052   1.158       .  T
C1046      N1051   1.157       .  T
C1048      N1050   1.157       .  T
C1053      C1054   1.446       .  A
C1054      C1055   1.420       .  A
C1054      C1059   1.452       .  S
C1055      C1056   1.409       .  A
C1055      C1062   1.455       .  S
C1057      C1058   1.414       .  A
C1057      C1060   1.456       .  S
C1058      C1061   1.452       .  S
C1060      N1065   1.157       .  T
C1061      N1063   1.158       .  T
C1067      C1072   1.403       .  A
C1068      C1069   1.419       .  A
C1068      C1073   1.455       .  S
C1069      C1076   1.452       .  S
C1070      C1071   1.454       .  A
C1071      C1072   1.423       .  A
C1071      C1074   1.451       .  S
C1072      C1075   1.455       .  S
C1073      N1080   1.157       .  T
C1074      N1079   1.158       .  T
C1075      N1077   1.157       .  T
C1081      C1082   1.451       .  A
C1082      C1083   1.419       .  A
C1082      C1087   1.449       .  S
C1083      C1084   1.404       .  A
C1083      C1090   1.457       .  S
C1085      C1086   1.414       .  A
C1085      C1088   1.455       .  S
C1086      C1089   1.453       .  S
C1087      N1094   1.158       .  T
C1088      N1093   1.157       .  T
C1089      N1091   1.157   1_565  T
C1090      N1092   1.157       .  T
C1095      C1100   1.452       .  A
C1096      C1097   1.417       .  A
C1096      C1101   1.449       .  S
C1097      C1104   1.457       .  S
C1098      C1099   1.401       .  A
C1099      C1100   1.413       .  A
C1099      C1102   1.456       .  S
C1100      C1103   1.453       .  S
C1101      N1108   1.158       .  T
C1102      N1107   1.158       .  T
C1103      N1105   1.157       .  T
C1104      N1106   1.157       .  T
C1109      C1110   1.449       .  A
C1110      C1111   1.422       .  A
C1110      C1115   1.454       .  S
C1111      C1112   1.418   1_655  A
C1111      C1118   1.455       .  S
C1113      C1114   1.407       .  A
C1113      C1116   1.450       .  S
C1114      C1117   1.449       .  S
C1115      N1122   1.158       .  T
C1116      N1121   1.157       .  T
C1117      N1119   1.158       .  T
C1118      N1120   1.158       .  T
C1123      C1128   1.448       .  A
C1124      C1125   1.416       .  A
C1124      C1129   1.446       .  S
C1125      C1132   1.457       .  S
C1126      C1127   1.396   1_455  A
C1127      C1128   1.417       .  A
C1127      C1130   1.459       .  S
C1128      C1131   1.443       .  S
C1129      N1136   1.157       .  T
C1130      N1135   1.157       .  T
C1131      N1133   1.158       .  T
C1132      N1134   1.157       .  T
