geometry optimzed in LAMMPS
_audit_creation_date              2020-11-30 
_audit_creation_method            'lammps2cif' 
_symmetry_space_group_name_H-M    'P1' 
_symmetry_Int_Tables_number       1 
_symmetry_cell_setting            triclinic 
loop_ 
_symmetry_equiv_pos_as_xyz 
  x,y,z 
_cell_length_a                    51.05623129 
_cell_length_b                    51.97023539456368 
_cell_length_c                    40.681728905801876 
_cell_angle_alpha                 89.7379593325859 
_cell_angle_beta                  90.24776905181069 
_cell_angle_gamma                 89.9772283872319 
loop_ 
_atom_site_label 
_atom_site_type_symbol 
_atom_site_fract_x 
_atom_site_fract_y 
_atom_site_fract_z 
_atom_site_charge 
O1          O  0.25045161  0.22407925  0.40711002    -0.86800
O2          O  0.24769293  0.22434238  0.59539699    -0.86900
O3          O  0.29156957  0.19444120  0.50199841    -0.88600
O4          O  0.20703636  0.19558030  0.50041783    -0.87300
O5          O  0.17560718  0.22692770  0.49817058    -0.86900
O6          O  0.32403666  0.22472367  0.50341635    -0.88300
O7          O  0.24614176  0.19413663  0.55432441    -0.86800
O8          O  0.24983668  0.19396134  0.44859874    -0.86400
Zr9        Zr  0.24948668  0.21613232  0.50133464     2.84300
O10         O  0.22315996  0.24230741  0.53395354    -1.08300
O11         O  0.27668699  0.24129746  0.46815819    -1.09100
C12         C  0.25019027  0.20047963  0.41789791     1.06400
C13         C  0.24605244  0.20086866  0.58486994     1.06300
C14         C  0.31584443  0.20124438  0.50282685     1.09300
C15         C  0.18306100  0.20315592  0.49859423     1.07100
H16         H  0.28645394  0.22977767  0.54972818     0.32600
O17         O  0.27591103  0.24092584  0.53597551    -1.29300
H18         H  0.21317923  0.23144622  0.45295194     0.32300
O19         O  0.22414526  0.24219318  0.46657353    -1.31000
O20         O  0.24955200  0.31006521  0.59560238    -0.86700
O21         O  0.25200179  0.31073618  0.40700541    -0.88200
O22         O  0.32402787  0.26685179  0.55691459    -0.86800
O23         O  0.17520925  0.26724767  0.55210637    -0.86900
O24         O  0.17640380  0.26901805  0.44535390    -0.86600
O25         O  0.32511371  0.26501284  0.44981535    -0.86400
O26         O  0.29393961  0.33869960  0.50255940    -0.86800
O27         O  0.21000208  0.34108172  0.50181425    -0.86200
O28         O  0.32551323  0.30751687  0.50245320    -0.87300
O29         O  0.17732624  0.31089407  0.49965818    -0.86400
O30         O  0.29241040  0.26537381  0.59696748    -0.86800
O31         O  0.29534776  0.26538839  0.40744193    -0.86600
O32         O  0.20798316  0.26643442  0.40532103    -0.86200
O33         O  0.20572419  0.26582683  0.59380038    -0.86600
O34         O  0.25182207  0.34011575  0.55419199    -0.86900
O35         O  0.25056445  0.34082261  0.44826108    -0.88300
Zr36       Zr  0.24949075  0.26720163  0.56907607     2.83100
Zr37       Zr  0.25135074  0.26734672  0.43277683     2.83500
Zr38       Zr  0.30284357  0.26651998  0.50274254     2.84100
Zr39       Zr  0.19776229  0.26847561  0.49931833     2.83400
Zr40       Zr  0.25130525  0.31847862  0.50109435     2.84200
O41         O  0.22501204  0.29370394  0.46613510    -1.08800
O42         O  0.27679119  0.29269384  0.53586991    -1.08300
C43         C  0.25081706  0.33363267  0.58488619     1.06300
C44         C  0.25116758  0.33428100  0.41766071     1.08900
C45         C  0.31657207  0.26582991  0.58726829     1.06500
C46         C  0.18188108  0.26595074  0.58277952     1.06900
C47         C  0.18379489  0.26740144  0.41505135     1.06400
C48         C  0.31914720  0.26453725  0.41887828     1.06000
C49         C  0.31798301  0.33120988  0.50240535     1.06400
C50         C  0.18576425  0.33429568  0.50121553     1.05900
H51         H  0.28899801  0.30341065  0.45454171     0.32600
O52         O  0.27764727  0.29268336  0.46774160    -1.29900
H53         H  0.21300322  0.30438094  0.54751858     0.32600
O54         O  0.22394265  0.29345109  0.53424495    -1.31300
N55         N  0.46087109  0.01624264  0.47570430    -0.36900
N56         N  0.99843493  0.05729247  0.46942534    -0.57400
N57         N  0.04066004  0.01993362  0.46530640    -0.36900
N58         N  0.00183922  0.47870102  0.51278183    -0.57400
C59         C  0.44545696  0.03600830  0.48517747     0.26700
C60         C  0.44673926  0.49485347  0.51829584     0.26700
C61         C  0.05421008  0.04108933  0.47445280     0.26700
C62         C  0.05613443  0.49823077  0.51971279     0.26700
C63         C  0.47662194  0.07154655  0.47393631     0.35300
C64         C  0.01883686  0.07366089  0.46699446     0.35300
C65         C  0.48068700  0.46205261  0.50508184     0.35300
C66         C  0.02331614  0.46436955  0.50693388     0.35300
C67         C  0.42222511  0.02652179  0.49792285    -0.22200
C68         C  0.42228786  0.50173637  0.53012315    -0.22200
C69         C  0.07900739  0.03395009  0.48514282    -0.22200
C70         C  0.08073711  0.50609627  0.53013094    -0.22200
C71         C  0.48281820  0.09700471  0.46727443    -0.23200
C72         C  0.00994534  0.09865922  0.46258234    -0.23200
C73         C  0.48850773  0.43726333  0.49729102    -0.23200
C74         C  0.01620028  0.43988147  0.49689071    -0.23200
C75         C  0.45127961  0.06233150  0.48085763    -0.18600
C76         C  0.45476285  0.46939794  0.51202343    -0.18600
C77         C  0.04921054  0.47261846  0.51250776    -0.18600
C78         C  0.04521979  0.06675070  0.47214870    -0.18600
H79         H  0.40575568  0.03741565  0.50708677     0.14300
H80         H  0.40650586  0.48903161  0.53732303     0.14300
H81         H  0.09457164  0.04641806  0.49365960     0.14300
H82         H  0.09751148  0.49408260  0.53571302     0.14300
H83         H  0.46953496  0.11314165  0.46487806     0.12600
H84         H  0.02153632  0.11603789  0.46077425     0.12600
H85         H  0.47632042  0.42035843  0.49458833     0.12600
H86         H  0.02899352  0.42395333  0.49101980     0.12600
H87         H  0.47785608  0.01759213  0.46182370     0.25900
H88         H  0.02279516  0.01984896  0.45304389     0.25900
O89         O  0.49700995  0.43643388  0.90689776    -0.86800
O90         O  0.49787264  0.43693050  0.09594760    -0.86900
O91         O  0.03942989  0.40714897  0.99715882    -0.88600
O92         O  0.45371796  0.40798261  0.00253354    -0.87300
O93         O  0.42213339  0.43906576  0.00006237    -0.86900
O94         O  0.07084885  0.43859086  0.99770402    -0.88300
O95         O  0.49777796  0.40709676  0.05447571    -0.86800
O96         O  0.49601948  0.40664116  0.94870578    -0.86400
Zr97       Zr  0.49658535  0.42867389  0.00117959     2.84300
O98         O  0.47061173  0.45409782  0.03507082    -1.08300
O99         O  0.02286609  0.45422016  0.96452612    -1.09100
C100        C  0.49611123  0.41291340  0.91797041     1.06400
C101        C  0.49849795  0.41346792  0.08514279     1.06300
C102        C  0.06347237  0.41482660  0.99711893     1.09300
C103        C  0.42955132  0.41538937  0.00167202     1.07100
H104        H  0.03457407  0.44271417  0.04538466     0.32600
O105        O  0.02327477  0.45356917  0.03216058    -1.29300
H106        H  0.45960333  0.44355228  0.95277083     0.32300
O107        O  0.47087367  0.45417902  0.96614776    -1.31000
O108        O  0.49784941  0.02318972  0.09217348    -0.86700
O109        O  0.49291002  0.02315853  0.90430107    -0.88200
O110        O  0.07184221  0.48024986  0.05070753    -0.86800
O111        O  0.42330912  0.48081255  0.05303524    -0.86900
O112        O  0.42319029  0.48394680  0.94734908    -0.86600
O113        O  0.07111660  0.48063309  0.94606992    -0.86400
O114        O  0.03811443  0.05120390  0.99872830    -0.86800
O115        O  0.45124339  0.05094961  0.99769260    -0.86200
O116        O  0.06983002  0.02000499  0.99868688    -0.87300
O117        O  0.42051499  0.01893186  0.99975601    -0.86400
O118        O  0.04165135  0.47974859  0.09216119    -0.86800
O119        O  0.03943680  0.97846126  0.90371632    -0.86600
O120        O  0.45077527  0.98269669  0.90516215    -0.86200
O121        O  0.45331003  0.48057918  0.09503915    -0.86600
O122        O  0.49527694  0.05298342  0.05072084    -0.86900
O123        O  0.49200880  0.05242276  0.94614290    -0.88300
Zr124      Zr  0.49726826  0.47972159  0.06926026     2.83100
Zr125      Zr  0.49779094  0.47986692  0.93206210     2.83500
Zr126      Zr  0.04881202  0.48013377  0.99847640     2.84100
Zr127      Zr  0.44515310  0.47989148  0.00020754     2.83400
Zr128      Zr  0.49409969  0.03056820  0.99853949     2.84200
O129        O  0.46856286  0.00446176  0.96518129    -1.08800
O130        O  0.02266782  0.00394920  0.03190160    -1.08300
C131        C  0.49712268  0.04675643  0.08139744     1.06300
C132        C  0.49184221  0.04653835  0.91540941     1.08900
C133        C  0.06563113  0.48044569  0.08142406     1.06500
C134        C  0.42941277  0.48117266  0.08386381     1.06900
C135        C  0.42711028  0.98469034  0.91646241     1.06400
C136        C  0.06347748  0.97762354  0.91430053     1.06000
C137        C  0.06217270  0.04370541  0.99928716     1.06400
C138        C  0.42742670  0.04270137  0.99855530     1.05900
H139        H  0.03334438  0.01550606  0.95077668     0.32600
O140        O  0.02228404  0.00456599  0.96412855    -1.29900
H141        H  0.45821186  0.01562782  0.04680124     0.32600
O142        O  0.46918304  0.00483022  0.03339293    -1.31300
N143        N  0.28634227  0.22771253  0.01443347    -0.36900
N144        N  0.24495621  0.18926059  0.01718760    -0.57400
N145        N  0.20582911  0.22939577  0.02146756    -0.36900
N146        N  0.24720893  0.26777900  0.01601197    -0.57400
C147        C  0.29987242  0.20643975  0.00590551     0.26700
C148        C  0.30118880  0.24831830  0.00634265     0.26700
C149        C  0.19045505  0.20875822  0.01544753     0.26700
C150        C  0.19160981  0.25056713  0.01391780     0.26700
C151        C  0.26601059  0.17370713  0.02005176     0.35300
C152        C  0.22383153  0.17466246  0.02428022     0.35300
C153        C  0.26886000  0.28246101  0.01947995     0.35300
C154        C  0.22657491  0.28330862  0.02186785     0.35300
C155        C  0.32381625  0.21360389  0.99266227    -0.22200
C156        C  0.32471374  0.24005586  0.99315098    -0.22200
C157        C  0.16597467  0.21690264  0.00479411    -0.22200
C158        C  0.16673352  0.24331103  0.00370844    -0.22200
C159        C  0.25823675  0.14913654  0.02923966    -0.23200
C160        C  0.23145470  0.14972440  0.03176523    -0.23200
C161        C  0.26193996  0.30742754  0.02757604    -0.23200
C162        C  0.23512121  0.30794376  0.02916414    -0.23200
C163        C  0.29181608  0.18076013  0.01154205    -0.18600
C164        C  0.29451670  0.27427783  0.01213051    -0.18600
C165        C  0.20014862  0.27627971  0.01716655    -0.18600
C166        C  0.19769069  0.18280473  0.02018299    -0.18600
H167        H  0.33919630  0.20108143  0.98389148     0.14300
H168        H  0.34088677  0.25182168  0.98482725     0.14300
H169        H  0.14931030  0.20506587  0.99831820     0.14300
H170        H  0.15074983  0.25573468  0.99622162     0.14300
H171        H  0.27050910  0.13237733  0.03295370     0.12600
H172        H  0.21896616  0.13352284  0.03759464     0.12600
H173        H  0.27479906  0.32374122  0.03109451     0.12600
H174        H  0.22322666  0.32469820  0.03421783     0.12600
H175        H  0.26930945  0.22805767  0.02827619     0.25900
H176        H  0.22404966  0.22913344  0.03294292     0.25900
C177        C  0.50081678  0.20511987  0.23136232     0.86200
C178        C  0.02532532  0.20932207  0.25160468    -0.54000
C179        C  0.02598889  0.23211899  0.26824760     0.09100
C180        C  0.50225139  0.24859558  0.26403619     0.20100
C181        C  0.47816205  0.20875239  0.25602415    -0.54700
C182        C  0.47815406  0.23165966  0.27264435     0.09300
C183        C  0.49967199  0.22946557  0.20962651    -0.54300
C184        C  0.50053132  0.25228826  0.22636976     0.09800
H185        H  0.04123024  0.19545997  0.25281224     0.14300
H186        H  0.50299670  0.26705377  0.27742428     0.00100
H187        H  0.46314307  0.19461398  0.26064685     0.14600
H188        H  0.49855609  0.22859064  0.18298896     0.14400
C189        C  0.24962492  0.04287076  0.26748696     0.86200
C190        C  0.27275347  0.03808737  0.24384984    -0.54000
C191        C  0.27142903  0.51483112  0.22836705     0.09100
C192        C  0.24807682  0.49759085  0.23813233     0.20100
C193        C  0.22527578  0.03940894  0.24541798    -0.54700
C194        C  0.22333208  0.51433070  0.23173595     0.09300
C195        C  0.25102277  0.51805428  0.29168943    -0.54300
C196        C  0.25013756  0.49500607  0.27574200     0.09800
H197        H  0.28902612  0.05105060  0.24015314     0.14300
H198        H  0.24818365  0.47854460  0.22609453     0.00100
H199        H  0.21051195  0.05432055  0.24277770     0.14600
H200        H  0.25253413  0.51935806  0.31827030     0.14400
C201        C  0.50146716  0.20748812  0.77069094     0.86200
C202        C  0.47680808  0.21104875  0.74943817    -0.54000
C203        C  0.47573233  0.23357618  0.73221452     0.09100
C204        C  0.50021869  0.25066236  0.73702011     0.20100
C205        C  0.02485424  0.20987766  0.74416518    -0.54700
C206        C  0.02418827  0.23243434  0.72666151     0.09300
C207        C  0.50307981  0.23189612  0.79189349    -0.54300
C208        C  0.50209912  0.25451246  0.77459769     0.09800
H209        H  0.46102500  0.19703837  0.74876368     0.14300
H210        H  0.49934346  0.26885139  0.72268879     0.00100
H211        H  0.04126587  0.19689149  0.74184293     0.14600
H212        H  0.50442285  0.23129342  0.81854203     0.14400
C213        C  0.24303644  0.04027005  0.73077019     0.86200
C214        C  0.21991647  0.03516248  0.75434846    -0.54000
C215        C  0.22243514  0.51366304  0.77102258     0.09100
C216        C  0.24708791  0.49762573  0.76278762     0.20100
C217        C  0.26744071  0.03683805  0.75263964    -0.54700
C218        C  0.27065920  0.51570922  0.76936248     0.09300
C219        C  0.24458623  0.51772659  0.70864040    -0.54300
C220        C  0.24619875  0.49476122  0.72501748     0.09800
H221        H  0.20338659  0.04782268  0.75780832     0.14300
H222        H  0.24814205  0.47894421  0.77609236     0.00100
H223        H  0.28254970  0.05145307  0.75474343     0.14600
H224        H  0.24384118  0.51892762  0.68198642     0.14400
C225        C  0.08831684  0.48250727  0.10523645    -0.20100
C226        C  0.08634889  0.47757215  0.13943130     0.36100
C227        C  0.10852429  0.48109395  0.16002153    -0.26100
C228        C  0.13261714  0.49002080  0.14761519     0.02500
C229        C  0.13472596  0.99399150  0.11111264     0.27300
C230        C  0.11293037  0.98816106  0.09119804    -0.25200
N231        N  0.06222228  0.46836139  0.15319344    -0.82600
H232        H  0.10692542  0.47706959  0.18608073     0.13100
C233        C  0.15538174  0.49506168  0.17040623     0.02500
N234        N  0.15853949  0.00299355  0.09620909    -0.81200
H235        H  0.11529873  0.98937936  0.06483138     0.18000
C236        C  0.18106786  0.98820396  0.16005563    -0.26000
C237        C  0.20333322  0.99451286  0.17900063     0.36000
C238        C  0.20008204  0.50662457  0.21064203    -0.20100
C239        C  0.17492834  0.51618511  0.21819654    -0.25300
C240        C  0.15288050  0.51114357  0.19812371     0.27400
H241        H  0.18363612  0.97607021  0.13874361     0.13100
N242        N  0.22867606  0.98669168  0.16790760    -0.82600
H243        H  0.17232956  0.52799739  0.23976655     0.18000
N244        N  0.12808229  0.52289788  0.20537432    -0.81200
H245        H  0.23162696  0.99445518  0.14445889     0.33600
H246        H  0.22874957  0.96664091  0.16593371     0.38100
H247        H  0.12944512  0.53419837  0.22650759     0.33600
H248        H  0.12350931  0.53541070  0.18597875     0.30300
H249        H  0.15706170  0.00290117  0.07057773     0.33600
H250        H  0.16115596  0.02216017  0.10321341     0.30300
H251        H  0.04896545  0.48368586  0.15292293     0.38100
H252        H  0.06482277  0.46335665  0.17791365     0.33600
C253        C  0.40658271  0.48296463  0.10712387    -0.20100
C254        C  0.40916737  0.48706029  0.14146456     0.36100
C255        C  0.38643730  0.48999177  0.16095481    -0.26100
C256        C  0.36120669  0.48951612  0.14696046     0.02500
C257        C  0.35856009  0.48494151  0.11306142     0.27300
C258        C  0.38102035  0.48157626  0.09373883    -0.25200
N259        N  0.43552846  0.99532701  0.15432951    -0.82600
H260        H  0.38961521  0.99876852  0.18617043     0.13100
C261        C  0.33765538  0.49510666  0.16746449     0.02500
N262        N  0.33294341  0.48394739  0.09827333    -0.81200
H263        H  0.37829238  0.47819104  0.06770982     0.18000
C264        C  0.32528132  0.01690089  0.16234208    -0.26000
C265        C  0.30269409  0.02357073  0.18016485     0.36000
C266        C  0.29286298  0.50717651  0.20553336    -0.20100
C267        C  0.30745563  0.48480055  0.21203807    -0.25300
C268        C  0.32983025  0.47863868  0.19331672     0.27400
H269        H  0.33259461  0.02982521  0.14352227     0.13100
N270        N  0.28917755  0.04723764  0.17306192    -0.82600
H271        H  0.30181679  0.47251475  0.23240269     0.18000
N272        N  0.34469306  0.45579824  0.20049034    -0.81200
H273        H  0.29855564  0.05734125  0.15420418     0.33600
H274        H  0.27052904  0.04248476  0.16426399     0.38100
H275        H  0.33646357  0.44580692  0.22027339     0.33600
H276        H  0.34325411  0.44371671  0.18008093     0.30300
H277        H  0.33427504  0.48076052  0.07297513     0.33600
H278        H  0.32317385  0.46807068  0.10824160     0.30300
H279        H  0.44226686  0.01177269  0.14211468     0.38100
H280        H  0.43419125  0.00021717  0.17917031     0.33600
C281        C  0.49940250  0.27792665  0.20917086    -0.20100
C282        C  0.01338857  0.29918179  0.21688176     0.36100
C283        C  0.01191075  0.32230798  0.19859670    -0.26100
C284        C  0.49810907  0.32475735  0.17278179     0.02500
C285        C  0.48123958  0.30437448  0.16428058     0.27300
C286        C  0.48206365  0.28123610  0.18246310    -0.25200
N287        N  0.03149970  0.29710065  0.24387838    -0.82600
H288        H  0.02430357  0.33841968  0.20517684     0.13100
C289        C  0.49947508  0.34845323  0.15206056     0.02500
N290        N  0.46356985  0.30719222  0.13688945    -0.81200
H291        H  0.46907615  0.26564102  0.17568417     0.18000
C292        C  0.00988588  0.34610528  0.11935742    -0.26000
C293        C  0.01140494  0.36729981  0.09784238     0.36000
C294        C  0.50043016  0.39175251  0.10924274    -0.20100
C295        C  0.48734129  0.39292204  0.13957787    -0.25300
C296        C  0.48663310  0.37141118  0.16098526     0.27400
H297        H  0.01888994  0.32801267  0.11257594     0.13100
N298        N  0.02570686  0.36504676  0.06759097    -0.82600
H299        H  0.47685653  0.41029275  0.14604272     0.18000
N300        N  0.47259138  0.37260098  0.19147230    -0.81200
H301        H  0.03348651  0.34655072  0.06507766     0.33600
H302        H  0.04165455  0.37763346  0.06886928     0.38100
H303        H  0.46433583  0.39083844  0.19456497     0.33600
H304        H  0.45700795  0.35960308  0.19001098     0.30300
H305        H  0.45253607  0.29043904  0.13368208     0.33600
H306        H  0.45030643  0.32181098  0.14265352     0.30300
H307        H  0.04586982  0.28384932  0.23719716     0.38100
H308        H  0.04114592  0.31457517  0.24774717     0.33600
C309        C  0.50106708  0.18009486  0.21060776    -0.20100
C310        C  0.02151456  0.17606867  0.18633340     0.36100
C311        C  0.02181791  0.15363875  0.16692552    -0.26100
C312        C  0.50117905  0.13507246  0.17024303     0.02500
C313        C  0.47984186  0.14019513  0.19100340     0.27300
C314        C  0.47994706  0.16243205  0.21078742    -0.25200
N315        N  0.04134848  0.19518175  0.18141113    -0.82600
H316        H  0.03708510  0.15136328  0.14874745     0.13100
C317        C  0.50090604  0.11242298  0.14767245     0.02500
N318        N  0.45777364  0.12300082  0.19137115    -0.81200
H319        H  0.46279349  0.16584535  0.22533281     0.18000
C320        C  0.00190433  0.08631717  0.16105300    -0.26000
C321        C  0.00057828  0.06435454  0.14061833     0.36000
C322        C  0.49862983  0.06883214  0.10527606    -0.20100
C323        C  0.49857517  0.09425053  0.09269509    -0.25300
C324        C  0.49973719  0.11587393  0.11336085     0.27400
H325        H  0.00248883  0.08380989  0.18749546     0.13100
N326        N  0.99938999  0.03915470  0.15521691    -0.82600
H327        H  0.49751674  0.09749492  0.06641350     0.18000
N328        N  0.49941625  0.14141951  0.09960728    -0.81200
H329        H  0.99825059  0.04041759  0.18081514     0.33600
H330        H  0.01708971  0.02990470  0.15014284     0.38100
H331        H  0.49875611  0.14075358  0.07393406     0.33600
H332        H  0.48210462  0.15033802  0.10714151     0.30300
H333        H  0.44363010  0.12925201  0.20803880     0.33600
H334        H  0.44904257  0.12366462  0.16808401     0.30300
H335        H  0.04045665  0.20128047  0.15690438     0.38100
H336        H  0.05960269  0.18656829  0.18539397     0.33600
C337        C  0.08426434  0.39489346  0.99726493    -0.20100
C338        C  0.07998576  0.37004163  0.98415276     0.36100
C339        C  0.09961413  0.35125269  0.98739631    -0.26100
C340        C  0.12353175  0.35699347  0.00257058     0.02500
C341        C  0.12843810  0.38198318  0.01416480     0.27300
C342        C  0.10870618  0.40069649  0.01152507    -0.25200
N343        N  0.05594630  0.36402716  0.96730452    -0.82600
H344        H  0.09631808  0.33202203  0.97804986     0.13100
C345        C  0.14312361  0.33641599  0.00668721     0.02500
N346        N  0.15343366  0.38820448  0.02848334    -0.81200
H347        H  0.11226869  0.41973457  0.02132157     0.18000
C348        C  0.16204815  0.33282764  0.98233146    -0.26000
C349        C  0.18065468  0.31314871  0.98537095     0.36000
C350        C  0.18052563  0.29711891  0.01334801    -0.20100
C351        C  0.16148703  0.30061205  0.03763929    -0.25300
C352        C  0.14264913  0.32017075  0.03451682     0.27400
H353        H  0.16220429  0.34519605  0.96081090     0.13100
N354        N  0.19948315  0.30917638  0.95988931    -0.82600
H355        H  0.16137884  0.28803259  0.05895617     0.18000
N356        N  0.12283681  0.32344180  0.05915231    -0.81200
H357        H  0.21021798  0.32615565  0.95699704     0.33600
H358        H  0.18932797  0.30573140  0.93797667     0.38100
H359        H  0.12498375  0.30964112  0.07775307     0.33600
H360        H  0.12580960  0.34134904  0.07014457     0.30300
H361        H  0.15401329  0.40756014  0.03535120     0.33600
H362        H  0.15551814  0.37742381  0.05008773     0.30300
H363        H  0.05505782  0.37550952  0.94614770     0.38100
H364        H  0.05598363  0.34492801  0.95932980     0.33600
C365        C  0.40907216  0.39497753  0.00228312    -0.20100
C366        C  0.38250309  0.40009930  0.01015387     0.36100
C367        C  0.36434477  0.37974623  0.01043695    -0.26100
C368        C  0.37211967  0.35454826  0.00336533     0.02500
C369        C  0.39832274  0.34934400  0.99542535     0.27300
C370        C  0.41649565  0.36954770  0.99497255    -0.25200
N371        N  0.37403966  0.42565616  0.01844072    -0.82600
H372        H  0.34407665  0.38341838  0.01671024     0.13100
C373        C  0.35277321  0.33354702  0.00560663     0.02500
N374        N  0.40635297  0.32351699  0.98792611    -0.81200
H375        H  0.43665793  0.36525765  0.98900723     0.18000
C376        C  0.34042029  0.32475555  0.97695760    -0.26000
C377        C  0.32144820  0.30520868  0.97849460     0.36000
C378        C  0.31520619  0.29416900  0.00919682    -0.20100
C379        C  0.32787536  0.30271432  0.03774220    -0.25300
C380        C  0.34668410  0.32236773  0.03623517     0.27400
H381        H  0.34538068  0.33340762  0.95351052     0.13100
N382        N  0.30850737  0.29645959  0.94915785    -0.82600
H383        H  0.32283133  0.29416535  0.06121981     0.18000
N384        N  0.35949724  0.33121946  0.06561387    -0.81200
H385        H  0.31557771  0.30633236  0.92857830     0.33600
H386        H  0.28866747  0.30116846  0.95113696     0.38100
H387        H  0.35256575  0.32120599  0.08615744     0.33600
H388        H  0.37939869  0.32677145  0.06363260     0.30300
H389        H  0.42626524  0.32299116  0.98205464     0.33600
H390        H  0.40410510  0.31241823  0.00922323     0.30300
H391        H  0.38299151  0.43054370  0.04071802     0.38100
H392        H  0.35384651  0.42607776  0.02261490     0.33600
C393        C  0.40631831  0.06189997  0.99795966    -0.20100
C394        C  0.38309440  0.05815300  0.01615514     0.36100
C395        C  0.36344993  0.07694389  0.01480064    -0.26100
C396        C  0.36677485  0.09927233  0.99596799     0.02500
C397        C  0.38967412  0.10291890  0.97743654     0.27300
C398        C  0.40933685  0.08412928  0.97863824    -0.25200
N399        N  0.37989766  0.03574555  0.03666526    -0.82600
H400        H  0.34584230  0.07464314  0.02931190     0.13100
C401        C  0.34748713  0.12000816  0.99905128     0.02500
N402        N  0.39315575  0.12604321  0.95841253    -0.81200
H403        H  0.42705275  0.08680612  0.96443971     0.18000
C404        C  0.35068922  0.13758019  0.02472055    -0.26000
C405        C  0.33264075  0.15750049  0.02931563     0.36000
C406        C  0.31134137  0.15995224  0.00741179    -0.20100
C407        C  0.30815298  0.14229815  0.98166925    -0.25300
C408        C  0.32600917  0.12207549  0.97743666     0.27400
H409        H  0.36721511  0.13553329  0.04134944     0.13100
N410        N  0.33575157  0.17524592  0.05605146    -0.82600
H411        H  0.29156646  0.14424791  0.96513034     0.18000
N412        N  0.32213357  0.10334903  0.95196340    -0.81200
H413        H  0.35254264  0.17082435  0.06976156     0.33600
H414        H  0.31980202  0.17279720  0.07178842     0.38100
H415        H  0.30506378  0.10743408  0.93863345     0.33600
H416        H  0.33766004  0.10494763  0.93544280     0.30300
H417        H  0.41139616  0.12596537  0.94682353     0.33600
H418        H  0.37908025  0.12611447  0.93969604     0.30300
H419        H  0.39400480  0.03661344  0.05534370     0.38100
H420        H  0.36164394  0.03594180  0.04821634     0.33600
C421        C  0.08228984  0.06410900  0.00126142    -0.20100
C422        C  0.10595736  0.06040232  0.01879262     0.36100
C423        C  0.12363613  0.08091340  0.02183660    -0.26100
C424        C  0.11814504  0.10492553  0.00774154     0.02500
C425        C  0.09481363  0.10867167  0.98984183     0.27300
C426        C  0.07703106  0.08822795  0.98685426    -0.25200
N427        N  0.11167001  0.03612415  0.03420151    -0.82600
H428        H  0.14178136  0.07825220  0.03536344     0.13100
C429        C  0.13756382  0.12571380  0.01114487     0.02500
N430        N  0.08932622  0.13321353  0.97488755    -0.81200
H431        H  0.05896354  0.09115144  0.97325537     0.18000
C432        C  0.15244642  0.13271293  0.98372094    -0.26000
C433        C  0.17217123  0.15134418  0.98630272     0.36000
C434        C  0.17710142  0.16290239  0.01697208    -0.20100
C435        C  0.16181920  0.15635510  0.04429665    -0.25300
C436        C  0.14181510  0.13791600  0.04157537     0.27400
H437        H  0.14878910  0.12339714  0.96036732     0.13100
N438        N  0.18689469  0.15901301  0.95785850    -0.82600
H439        H  0.16543840  0.16577564  0.06758492     0.18000
N440        N  0.12568128  0.13161588  0.06934257    -0.81200
H441        H  0.18028165  0.14923307  0.93701114     0.33600
H442        H  0.20632926  0.15336508  0.96162987     0.38100
H443        H  0.13129769  0.14239475  0.08983594     0.33600
H444        H  0.10650461  0.13715694  0.06357082     0.30300
H445        H  0.07142332  0.13272099  0.96232372     0.33600
H446        H  0.08726803  0.14663540  0.99376969     0.30300
H447        H  0.09791764  0.03344281  0.05287156     0.38100
H448        H  0.13002746  0.03661817  0.04563276     0.33600
C449        C  0.40765083  0.48960839  0.89313670    -0.20100
C450        C  0.38411649  0.00579553  0.90069387     0.36100
C451        C  0.36247607  0.00784886  0.87924438    -0.26100
C452        C  0.36253211  0.49423695  0.85186338     0.02500
C453        C  0.38291394  0.47692522  0.84380338     0.27300
C454        C  0.40531081  0.47490385  0.86437055    -0.25200
N455        N  0.38497981  0.02085448  0.93027012    -0.82600
H456        H  0.34631447  0.02037579  0.88559635     0.13100
C457        C  0.33881108  0.49776590  0.83027450     0.02500
N458        N  0.38053805  0.46110401  0.81508005    -0.81200
H459        H  0.42055734  0.46118138  0.85853188     0.18000
C460        C  0.34187405  0.50773008  0.79841981    -0.26000
C461        C  0.32007499  0.51311170  0.77804390     0.36000
C462        C  0.29433732  0.50864575  0.78971027    -0.20100
C463        C  0.29014625  0.99624319  0.81995154    -0.25300
C464        C  0.31229533  0.99147266  0.84002460     0.27400
H465        H  0.36144992  0.51172987  0.78958151     0.13100
N466        N  0.32405192  0.52299041  0.74538220    -0.82600
H467        H  0.27067830  0.99303002  0.82963566     0.18000
N468        N  0.30910749  0.98143702  0.87274486    -0.81200
H469        H  0.34401740  0.52527013  0.74057264     0.33600
H470        H  0.31706722  0.50924143  0.72884496     0.38100
H471        H  0.28928026  0.97855606  0.87791739     0.33600
H472        H  0.31800600  0.96331915  0.87356707     0.30300
H473        H  0.39705751  0.44939297  0.81255619     0.33600
H474        H  0.36460146  0.44879259  0.81867898     0.30300
H475        H  0.40064891  0.03370244  0.92813949     0.38100
H476        H  0.36807580  0.03207184  0.93248868     0.33600
C477        C  0.20042112  0.50487124  0.79234789    -0.20100
C478        C  0.18023268  0.48917800  0.77965393     0.36100
C479        C  0.15799915  0.48376235  0.79903789    -0.26100
C480        C  0.15270294  0.99153921  0.82805558     0.02500
C481        C  0.16634767  0.01467716  0.83386026     0.27300
C482        C  0.18906104  0.02032635  0.81568307    -0.25200
N483        N  0.18218290  0.47918914  0.74687539    -0.82600
H484        H  0.14248747  0.47177423  0.78924790     0.13100
C485        C  0.12881146  0.98506434  0.84740260     0.02500
N486        N  0.15722944  0.03223715  0.85851826    -0.81200
H487        H  0.19926851  0.03828903  0.81994450     0.18000
C488        C  0.13160337  0.97115428  0.87676079    -0.26000
C489        C  0.11018701  0.96713358  0.89777706     0.36000
C490        C  0.08693910  0.48082221  0.89162743    -0.20100
C491        C  0.08441497  0.49368758  0.86129545    -0.25300
C492        C  0.10632563  0.49770462  0.84070886     0.27400
H493        H  0.15069713  0.96376809  0.88375014     0.13100
N494        N  0.11378208  0.95209599  0.92706961    -0.82600
H495        H  0.06558044  0.50166324  0.85430691     0.18000
N496        N  0.10351277  0.51182602  0.81045186    -0.81200
H497        H  0.12843512  0.96073894  0.94124967     0.33600
H498        H  0.12036023  0.93383155  0.92025481     0.38100
H499        H  0.08399481  0.51726082  0.80677760     0.33600
H500        H  0.11429991  0.52882786  0.81271217     0.30300
H501        H  0.16977887  0.04806558  0.86032927     0.33600
H502        H  0.13909018  0.03943183  0.85082320     0.30300
H503        H  0.18166411  0.49481114  0.73059898     0.38100
H504        H  0.16590739  0.46778584  0.74130195     0.33600
C505        C  0.49991140  0.18258500  0.79146237    -0.20100
C506        C  0.47939842  0.17947167  0.81458893     0.36100
C507        C  0.47711021  0.15662092  0.83287864    -0.26100
C508        C  0.99855895  0.13523039  0.82792146     0.02500
C509        C  0.01848900  0.13829150  0.80441418     0.27300
C510        C  0.01949241  0.16095967  0.78516451    -0.25200
N511        N  0.46073904  0.19964687  0.81974630    -0.82600
H512        H  0.46127747  0.15471085  0.85038780     0.13100
C513        C  0.49303889  0.11338783  0.85097831     0.02500
N514        N  0.03785805  0.11845557  0.80046175    -0.81200
H515        H  0.03477904  0.16226803  0.76714047     0.18000
C516        C  0.48892518  0.08884306  0.83749968    -0.26000
C517        C  0.48758265  0.06664521  0.85767979     0.36000
C518        C  0.49104185  0.06902468  0.89211472    -0.20100
C519        C  0.00026369  0.09275001  0.90415310    -0.25300
C520        C  0.00158158  0.11460551  0.88383887     0.27400
H521        H  0.48660484  0.08706348  0.81112303     0.13100
N522        N  0.48263306  0.04192554  0.84324458    -0.82600
H523        H  0.00397153  0.09517728  0.93018204     0.18000
N524        N  0.00747380  0.13937779  0.89764340    -0.81200
H525        H  0.48113545  0.04351554  0.81767521     0.33600
H526        H  0.46432703  0.03570499  0.85153975     0.38100
H527        H  0.00965190  0.13807551  0.92316571     0.33600
H528        H  0.02559341  0.14522306  0.88835168     0.30300
H529        H  0.05118716  0.12346384  0.78207743     0.33600
H530        H  0.04856558  0.11722122  0.82238431     0.30300
H531        H  0.44203848  0.19236755  0.81490707     0.38100
H532        H  0.46155779  0.20490999  0.84450877     0.33600
C533        C  0.49543451  0.39106200  0.89402591    -0.20100
C534        C  0.48542140  0.36650217  0.90306191     0.36100
C535        C  0.48768603  0.34569045  0.88125526    -0.26100
C536        C  0.99902508  0.34926949  0.84551590     0.02500
C537        C  0.00828725  0.37377056  0.83601242     0.27300
C538        C  0.00643821  0.39467693  0.85813929    -0.25200
N539        N  0.47264661  0.36275524  0.93415787    -0.82600
H540        H  0.48050339  0.32686874  0.88843675     0.13100
C541        C  0.00170042  0.32608289  0.82420034     0.02500
N542        N  0.01999783  0.37718034  0.80424175    -0.81200
H543        H  0.01414503  0.41328577  0.85100287     0.18000
C544        C  0.48357884  0.32203227  0.80285691    -0.26000
C545        C  0.48404714  0.29929516  0.78416679     0.36000
C546        C  0.50265172  0.27999133  0.79135690    -0.20100
C547        C  0.01965047  0.28325551  0.81478988    -0.25300
C548        C  0.01967471  0.30646541  0.83253295     0.27400
H549        H  0.46867050  0.33639405  0.79788707     0.13100
N550        N  0.46483995  0.29542062  0.75893648    -0.82600
H551        H  0.03341291  0.26823421  0.82150033     0.18000
N552        N  0.03758684  0.31007652  0.85946953    -0.81200
H553        H  0.44628395  0.29665001  0.76957684     0.33600
H554        H  0.46660196  0.31037320  0.74181262     0.38100
H555        H  0.04938742  0.29380438  0.86269606     0.33600
H556        H  0.05009542  0.32522277  0.85316428     0.30300
H557        H  0.02581914  0.39629938  0.80093013     0.33600
H558        H  0.03704707  0.36603707  0.80370102     0.30300
H559        H  0.45555631  0.37384701  0.93379358     0.38100
H560        H  0.46673593  0.34362053  0.93709667     0.33600
C561        C  0.33770466  0.26432246  0.61259225    -0.20100
C562        C  0.35925324  0.28131212  0.61182851     0.36100
C563        C  0.38073006  0.27716296  0.63311020    -0.26100
C564        C  0.38158304  0.25604032  0.65486862     0.02500
C565        C  0.35932002  0.23975587  0.65673893     0.27300
C566        C  0.33755529  0.24429905  0.63588773    -0.25200
N567        N  0.35928533  0.30267454  0.58924263    -0.82600
H568        H  0.39714380  0.29034741  0.63237399     0.13100
C569        C  0.40609008  0.25107582  0.67473507     0.02500
N570        N  0.35916763  0.21814399  0.67892353    -0.81200
H571        H  0.32096692  0.23130168  0.63659218     0.18000
C572        C  0.40447302  0.24673091  0.70882556    -0.26000
C573        C  0.42697906  0.24151342  0.72784245     0.36000
C574        C  0.45190439  0.24108135  0.71300413    -0.20100
C575        C  0.45381837  0.24627686  0.67929280    -0.25300
C576        C  0.43122256  0.25078623  0.65989282     0.27400
H577        H  0.38561533  0.24744638  0.72088602     0.13100
N578        N  0.42450319  0.23697426  0.76245096    -0.82600
H579        H  0.47292774  0.24577362  0.66782493     0.18000
N580        N  0.43369298  0.25438719  0.62499135    -0.81200
H581        H  0.41558801  0.25306921  0.77291839     0.33600
H582        H  0.41210401  0.22118687  0.76584136     0.38100
H583        H  0.45336139  0.25376086  0.61798808     0.33600
H584        H  0.42441930  0.23888013  0.61352387     0.30300
H585        H  0.34134407  0.20829341  0.67749032     0.33600
H586        H  0.37365827  0.20532447  0.67122620     0.30300
H587        H  0.34392638  0.31491310  0.59579405     0.38100
H588        H  0.37655091  0.31333591  0.59160270     0.33600
C589        C  0.16011258  0.26421389  0.60682266    -0.20100
C590        C  0.16021633  0.24590135  0.63261759     0.36100
C591        C  0.13757283  0.24263739  0.65185339    -0.26100
C592        C  0.11486846  0.25729896  0.64605847     0.02500
C593        C  0.11520474  0.27643659  0.62134173     0.27300
C594        C  0.13774854  0.27957798  0.60190282    -0.25200
N595        N  0.18264745  0.22965203  0.63800056    -0.82600
H596        H  0.13740880  0.22819623  0.67115071     0.13100
C597        C  0.09064223  0.25144598  0.66510905     0.02500
N598        N  0.09244916  0.29212503  0.61547899    -0.81200
H599        H  0.13769500  0.29375440  0.58227723     0.18000
C600        C  0.07913394  0.27046313  0.68474461    -0.26000
C601        C  0.05723782  0.26495191  0.70462354     0.36000
C602        C  0.04612727  0.24000607  0.70422391    -0.20100
C603        C  0.05734593  0.22122962  0.68382095    -0.25300
C604        C  0.07941882  0.22664636  0.66439001     0.27400
H605        H  0.08791117  0.28942990  0.68550503     0.13100
N606        N  0.04716913  0.28426329  0.72633376    -0.82600
H607        H  0.04890778  0.20211403  0.68316921     0.18000
N608        N  0.09058884  0.20701301  0.64396113    -0.81200
H609        H  0.05717442  0.30164063  0.72318748     0.33600
H610        H  0.05106979  0.27813614  0.75036900     0.38100
H611        H  0.08027159  0.18974635  0.64646259     0.33600
H612        H  0.08837118  0.21290432  0.61949811     0.30300
H613        H  0.09597815  0.30541558  0.59663876     0.33600
H614        H  0.07744942  0.28006791  0.60718910     0.30300
H615        H  0.19773831  0.24120342  0.64713823     0.38100
H616        H  0.17877954  0.21598748  0.65629027     0.33600
C617        C  0.24322430  0.06595921  0.71117692    -0.20100
C618        C  0.26398999  0.07158386  0.68917456     0.36100
C619        C  0.26412145  0.09470514  0.67092913    -0.26100
C620        C  0.24363375  0.11257667  0.67331502     0.02500
C621        C  0.22280201  0.10726754  0.69492608     0.27300
C622        C  0.22292662  0.08438493  0.71375819    -0.25200
N623        N  0.28494310  0.05358598  0.68482383    -0.82600
H624        H  0.28010522  0.09843174  0.65412547     0.13100
C625        C  0.24373201  0.13626712  0.65217425     0.02500
N626        N  0.20141870  0.12515234  0.69755269    -0.81200
H627        H  0.20669679  0.08139314  0.73004415     0.18000
C628        C  0.22358611  0.14002082  0.62899326    -0.26000
C629        C  0.22352735  0.16147381  0.60763396     0.36000
C630        C  0.24403774  0.17966440  0.60941975    -0.20100
C631        C  0.26374480  0.17640774  0.63325871    -0.25300
C632        C  0.26386031  0.15485229  0.65455929     0.27400
H633        H  0.20805843  0.12588217  0.62720243     0.13100
N634        N  0.20276299  0.16484647  0.58400239    -0.82600
H635        H  0.27950340  0.19033330  0.63459801     0.18000
N636        N  0.28441405  0.15166237  0.67847749    -0.81200
H637        H  0.18926468  0.14977504  0.58567378     0.33600
H638        H  0.19267078  0.18165941  0.59012261     0.38100
H639        H  0.29778247  0.16685637  0.67696812     0.33600
H640        H  0.27589346  0.15267305  0.70175980     0.30300
H641        H  0.18739018  0.11842165  0.71414203     0.33600
H642        H  0.20886751  0.14224954  0.70727707     0.30300
H643        H  0.30255288  0.06284038  0.69052046     0.38100
H644        H  0.28544311  0.04840163  0.66002948     0.33600
C645        C  0.24684561  0.46966875  0.70729396    -0.20100
C646        C  0.26767940  0.45218175  0.71162496     0.36100
C647        C  0.26843779  0.42930783  0.69312730    -0.26100
C648        C  0.24863618  0.42352440  0.67023831     0.02500
C649        C  0.22776388  0.44103880  0.66577115     0.27300
C650        C  0.22709031  0.46390760  0.68430764    -0.25200
N651        N  0.28865154  0.45810498  0.73380324    -0.82600
H652        H  0.28476813  0.41619166  0.69626948     0.13100
C653        C  0.25058264  0.39983757  0.64973462    -0.00700
N654        N  0.20742221  0.43557078  0.64227759    -0.81200
H655        H  0.21115985  0.47741863  0.68066994     0.18000
C656        C  0.23728867  0.37730093  0.65905618    -0.26000
C657        C  0.23749947  0.35509647  0.63899707     0.36000
C658        C  0.25136903  0.35546161  0.60890292    -0.20100
C659        C  0.26511448  0.37799112  0.60022128    -0.25300
C660        C  0.26485544  0.40005147  0.62019247     0.27400
H661        H  0.22629649  0.37723541  0.68177949     0.13100
N662        N  0.22310110  0.33257504  0.64870372    -0.82600
H663        H  0.27601432  0.37850250  0.57743168     0.18000
N664        N  0.27896844  0.42277170  0.61049750    -0.81200
H665        H  0.21425575  0.33538403  0.67154515     0.33600
H666        H  0.20791621  0.33002833  0.63169986     0.38100
H667        H  0.28883857  0.41970206  0.58839053     0.33600
H668        H  0.26526495  0.43731476  0.60591377     0.30300
H669        H  0.19335209  0.45019618  0.64220148     0.33600
H670        H  0.21586528  0.43562909  0.61891221     0.30300
H671        H  0.29001298  0.44324385  0.75112466     0.38100
H672        H  0.30608269  0.45851075  0.72041777     0.33600
C673        C  0.33585038  0.18058042  0.50252383    -0.20100
C674        C  0.32965855  0.15486512  0.51103018     0.36100
C675        C  0.34885363  0.13574556  0.50871389    -0.26100
C676        C  0.37411746  0.14172945  0.49804617     0.02500
C677        C  0.38072820  0.16731004  0.49025899     0.27300
C678        C  0.36153793  0.18653598  0.49262285    -0.25200
N679        N  0.30400216  0.14798728  0.52217735    -0.82600
H680        H  0.34391388  0.11602033  0.51484563     0.13100
C681        C  0.39327104  0.12080870  0.49417182     0.02500
N682        N  0.40680043  0.17351950  0.47962172    -0.81200
H683        H  0.36659024  0.20613194  0.48602721     0.18000
C684        C  0.39944815  0.11248513  0.46243271    -0.26000
C685        C  0.41765440  0.09265978  0.45766358     0.36000
C686        C  0.43008388  0.08144719  0.48516800    -0.20100
C687        C  0.42362429  0.08951737  0.51695789    -0.25300
C688        C  0.40515284  0.10913475  0.52174789     0.27400
H689        H  0.39000731  0.12150332  0.44142840     0.13100
N690        N  0.42408387  0.08419650  0.42509687    -0.82600
H691        H  0.43335097  0.08074694  0.53792216     0.18000
N692        N  0.39859494  0.11748571  0.55432979    -0.81200
H693        H  0.41343243  0.09462808  0.40752935     0.33600
H694        H  0.41811641  0.06502461  0.42305410     0.38100
H695        H  0.40892889  0.10676801  0.57191498     0.33600
H696        H  0.40483241  0.13655191  0.55668867     0.30300
H697        H  0.40841159  0.19319495  0.47452680     0.33600
H698        H  0.41954608  0.16964961  0.49921632     0.30300
H699        H  0.29643377  0.13408210  0.50625535     0.38100
H700        H  0.30576413  0.13971962  0.54556097     0.33600
C701        C  0.06441128  0.08770011  0.47693093    -0.20100
C702        C  0.06940350  0.09771722  0.50845273     0.36100
C703        C  0.08805517  0.11732385  0.51208337    -0.26100
C704        C  0.10144067  0.12706028  0.48471195     0.02500
C705        C  0.09591974  0.11741940  0.45307353     0.27300
C706        C  0.07750548  0.09761900  0.44952430    -0.25200
N707        N  0.05594484  0.08747828  0.53658092    -0.82600
H708        H  0.09250937  0.12477272  0.53630843     0.13100
C709        C  0.12214773  0.14648270  0.48958881     0.02500
N710        N  0.10908642  0.12780227  0.42480157    -0.81200
H711        H  0.07325324  0.08988814  0.42538816     0.18000
C712        C  0.14792267  0.14001688  0.48155059    -0.26000
C713        C  0.16823442  0.15798551  0.48446863     0.36000
C714        C  0.16256872  0.18304181  0.49619606    -0.20100
C715        C  0.13670315  0.18918402  0.50500131    -0.25300
C716        C  0.11641593  0.17114826  0.50174871     0.27400
H717        H  0.15209867  0.12087726  0.47247068     0.13100
N718        N  0.19435085  0.15091323  0.47486665    -0.82600
H719        H  0.13222034  0.20818307  0.51428165     0.18000
N720        N  0.09000248  0.17782872  0.51035614    -0.81200
H721        H  0.19515137  0.13158111  0.46792526     0.33600
H722        H  0.19906889  0.16167904  0.45393685     0.38100
H723        H  0.08914533  0.19666249  0.51922257     0.33600
H724        H  0.07876031  0.17745406  0.48882114     0.30300
H725        H  0.10287624  0.11850065  0.40340633     0.33600
H726        H  0.10346339  0.14707043  0.42239490     0.30300
H727        H  0.03606738  0.09186977  0.53386355     0.38100
H728        H  0.06226472  0.09661532  0.55804158     0.33600
C729        C  0.07031825  0.45335589  0.51009729    -0.20100
C730        C  0.08297464  0.44830067  0.47994770     0.36100
C731        C  0.10162313  0.42865493  0.47866636    -0.26100
C732        C  0.10816871  0.41440044  0.50682805     0.02500
C733        C  0.09606583  0.41990966  0.53706992     0.27300
C734        C  0.07708668  0.43934268  0.53835872    -0.25200
N735        N  0.07722651  0.46237780  0.45024188    -0.82600
H736        H  0.11122867  0.42456895  0.45555762     0.13100
C737        C  0.12806590  0.39397494  0.50448022     0.02500
N738        N  0.10299761  0.40561125  0.56617708    -0.81200
H739        H  0.06732444  0.44348216  0.56134411     0.18000
C740        C  0.15124971  0.39637920  0.52269151    -0.26000
C741        C  0.17034727  0.37713040  0.52191579     0.36000
C742        C  0.16617808  0.35502187  0.50256537    -0.20100
C743        C  0.14299953  0.35270192  0.48419369    -0.25300
C744        C  0.12391624  0.37210888  0.48474691     0.27400
H745        H  0.15445970  0.41326518  0.53772989     0.13100
N746        N  0.19359341  0.37981696  0.54148668    -0.82600
H747        H  0.13988082  0.33580399  0.46919723     0.18000
N748        N  0.10035019  0.36969014  0.46553699    -0.81200
H749        H  0.18803286  0.38179811  0.56605599     0.33600
H750        H  0.20306470  0.39675638  0.53430249     0.38100
H751        H  0.10054578  0.35260086  0.45206710     0.33600
H752        H  0.08464012  0.36835296  0.48185051     0.30300
H753        H  0.09247968  0.41226925  0.58643041     0.33600
H754        H  0.09734800  0.38650054  0.56251501     0.30300
H755        H  0.06290819  0.47640178  0.45381543     0.38100
H756        H  0.09427010  0.47214715  0.44341636     0.33600
C757        C  0.33842791  0.35136310  0.50230271    -0.20100
C758        C  0.33270484  0.37705820  0.49290724     0.36100
C759        C  0.35228182  0.39575251  0.49532746    -0.26100
C760        C  0.37769317  0.38922803  0.50524652     0.02500
C761        C  0.38386193  0.36354750  0.51325522     0.27300
C762        C  0.36406799  0.34489510  0.51211272    -0.25200
N763        N  0.30725751  0.38411413  0.48047259    -0.82600
H764        H  0.34779391  0.41557709  0.48911069     0.13100
C765        C  0.39759988  0.40966789  0.50690625     0.02500
N766        N  0.41018552  0.35656650  0.52233628    -0.81200
H767        H  0.36872683  0.32526384  0.51904625     0.18000
C768        C  0.41042871  0.41433514  0.53683878    -0.26000
C769        C  0.42908265  0.43386264  0.53954904     0.36000
C770        C  0.43458391  0.44920560  0.51165834    -0.20100
C771        C  0.42160642  0.44473780  0.48187510    -0.25300
C772        C  0.40323846  0.42493494  0.47909684     0.27400
H773        H  0.40578113  0.40279575  0.55829684     0.13100
N774        N  0.44170899  0.43768274  0.57082283    -0.82600
H775        H  0.42622157  0.45652254  0.46061993     0.18000
N776        N  0.39045229  0.42008443  0.44817277    -0.81200
H777        H  0.45268725  0.42116983  0.57607231     0.33600
H778        H  0.45485875  0.45303747  0.57019892     0.38100
H779        H  0.39671001  0.43319924  0.43029234     0.33600
H780        H  0.39627759  0.40184723  0.44028919     0.30300
H781        H  0.41141990  0.33688145  0.52754382     0.33600
H782        H  0.42212361  0.35993144  0.50194356     0.30300
H783        H  0.30632699  0.40383042  0.47535651     0.38100
H784        H  0.30462578  0.37471111  0.45802255     0.33600
C785        C  0.04961549  0.24016967  0.28770635    -0.20100
C786        C  0.07505693  0.23952741  0.27402100     0.36100
C787        C  0.09699584  0.24570516  0.29370990    -0.26100
C788        C  0.09442449  0.25165442  0.32726151     0.02500
C789        C  0.06890924  0.25224573  0.34085372     0.27300
C790        C  0.04691860  0.24696614  0.32080798    -0.25200
N791        N  0.07861573  0.23220665  0.24027538    -0.82600
H792        H  0.11631691  0.24561374  0.28282593     0.13100
C793        C  0.11850598  0.25656509  0.34795468     0.02500
N794        N  0.06540937  0.25727168  0.37527607    -0.81200
H795        H  0.02768495  0.24672943  0.33161708     0.18000
C796        C  0.11951921  0.27819170  0.36864343    -0.26000
C797        C  0.14091963  0.28250426  0.39001236     0.36000
C798        C  0.16248307  0.26545994  0.38994693    -0.20100
C799        C  0.16215978  0.24454038  0.36822746    -0.25300
C800        C  0.14023310  0.23953919  0.34789191     0.27400
H801        H  0.10332065  0.29165531  0.36847844     0.13100
N802        N  0.14072279  0.30402332  0.41208174    -0.82600
H803        H  0.17845140  0.23116236  0.36855496     0.18000
N804        N  0.13954902  0.21662778  0.32823249    -0.81200
H805        H  0.12331039  0.31446749  0.40961615     0.33600
H806        H  0.15591863  0.31636763  0.40517532     0.38100
H807        H  0.15689084  0.20611913  0.33105415     0.33600
H808        H  0.12445447  0.20498497  0.33718109     0.30300
H809        H  0.04553299  0.25710105  0.38136461     0.33600
H810        H  0.07416377  0.24216734  0.38836098     0.30300
H811        H  0.06947945  0.24600602  0.22541168     0.38100
H812        H  0.09847276  0.23234202  0.23410721     0.33600
C813        C  0.45497231  0.23967902  0.29340942    -0.20100
C814        C  0.45721057  0.25521262  0.32174541     0.36100
C815        C  0.43479186  0.26125037  0.34041561    -0.26100
C816        C  0.40987886  0.25151458  0.33225795     0.02500
C817        C  0.40744044  0.23627209  0.30377121     0.27300
C818        C  0.42968814  0.23106784  0.28449240    -0.25200
N819        N  0.48220028  0.26424710  0.33261580    -0.82600
H820        H  0.43702783  0.27321065  0.36199215     0.13100
C821        C  0.38686969  0.25613812  0.35451794     0.02500
N822        N  0.38245776  0.22553688  0.29485500    -0.81200
H823        H  0.42709982  0.21991110  0.26232468     0.18000
C824        C  0.36293871  0.26530905  0.34164221    -0.26000
C825        C  0.34045330  0.26812587  0.36157382     0.36000
C826        C  0.34192521  0.26222981  0.39560293    -0.20100
C827        C  0.36613313  0.25359766  0.40836066    -0.25300
C828        C  0.38829560  0.25022769  0.38838613     0.27400
H829        H  0.36174747  0.27017748  0.31575784     0.13100
N830        N  0.31630637  0.27694200  0.34722526    -0.82600
H831        H  0.36774979  0.24866259  0.43418192     0.18000
N832        N  0.41210504  0.24012139  0.40237470    -0.81200
H833        H  0.31844602  0.28005637  0.32196514     0.33600
H834        H  0.31219230  0.29481395  0.35753398     0.38100
H835        H  0.41004147  0.23692193  0.42762576     0.33600
H836        H  0.41549389  0.22215204  0.39175222     0.30300
H837        H  0.38389455  0.21484242  0.27323382     0.33600
H838        H  0.37706363  0.21262242  0.31340900     0.30300
H839        H  0.48532400  0.25745958  0.35655361     0.38100
H840        H  0.48155160  0.28434109  0.33343198     0.33600
C841        C  0.25061666  0.35591940  0.39338664    -0.20100
C842        C  0.26898140  0.35794732  0.36762503     0.36100
C843        C  0.26873301  0.37980488  0.34682325    -0.26100
C844        C  0.25058285  0.39978006  0.35134607     0.02500
C845        C  0.23214103  0.39772515  0.37693791     0.27300
C846        C  0.23240278  0.37592563  0.39769711    -0.25200
N847        N  0.28840870  0.33829883  0.36341373    -0.82600
H848        H  0.28302596  0.38151169  0.32732271     0.13100
C849        C  0.25168113  0.42334704  0.33023957     0.02500
N850        N  0.21347370  0.41802293  0.38204337    -0.81200
H851        H  0.21840781  0.37460689  0.41758968     0.18000
C852        C  0.23107264  0.42875014  0.30827514    -0.26000
C853        C  0.23061343  0.45173814  0.28983153     0.36000
C854        C  0.25094242  0.46983314  0.29342312    -0.20100
C855        C  0.27176006  0.46430484  0.31500514    -0.25300
C856        C  0.27236798  0.44122392  0.33339765     0.27400
H857        H  0.21503334  0.41523190  0.30585953     0.13100
N858        N  0.20893162  0.45712654  0.26843546    -0.82600
H859        H  0.28745843  0.47817211  0.31770752     0.18000
N860        N  0.29361817  0.43608246  0.35577181    -0.81200
H861        H  0.19181445  0.45684725  0.28244306     0.33600
H862        H  0.20770393  0.44237103  0.25112004     0.38100
H863        H  0.30731451  0.45102711  0.35508765     0.33600
H864        H  0.28594516  0.43578867  0.37955752     0.30300
H865        H  0.20119920  0.41358580  0.40177616     0.33600
H866        H  0.22389661  0.43452763  0.38869455     0.30300
H867        H  0.30044559  0.33837301  0.38427887     0.38100
H868        H  0.30044055  0.34262962  0.34340215     0.33600
C869        C  0.25028515  0.17887026  0.39358370    -0.20100
C870        C  0.26430488  0.15587882  0.40005478     0.36100
C871        C  0.26344602  0.13538592  0.37758048    -0.26100
C872        C  0.24856115  0.13695493  0.34861688     0.02500
C873        C  0.23434889  0.15974401  0.34193751     0.27300
C874        C  0.23551226  0.18054654  0.36432416    -0.25200
N875        N  0.27987666  0.15335596  0.42928153    -0.82600
H876        H  0.27442590  0.11799391  0.38289981     0.13100
C877        C  0.24821763  0.11440530  0.32583924     0.02500
N878        N  0.21859198  0.16154675  0.31266911    -0.81200
H879        H  0.22440629  0.19789802  0.35926253     0.18000
C880        C  0.22768962  0.09657873  0.32742872    -0.26000
C881        C  0.22805124  0.07380017  0.30871478     0.36000
C882        C  0.24914593  0.06845625  0.28713097    -0.20100
C883        C  0.26946448  0.08694483  0.28523214    -0.25300
C884        C  0.26925707  0.10956367  0.30444040     0.27400
H885        H  0.21154928  0.10000520  0.34405942     0.13100
N886        N  0.20701427  0.05577999  0.31224695    -0.82600
H887        H  0.28601206  0.08405487  0.26941496     0.18000
N888        N  0.29068464  0.12746609  0.30283768    -0.81200
H889        H  0.18951883  0.06516949  0.30621767     0.33600
H890        H  0.20609797  0.05018678  0.33693599     0.38100
H891        H  0.30489497  0.12112714  0.28631139     0.33600
H892        H  0.28337760  0.14481394  0.29345477     0.30300
H893        H  0.20909662  0.17935977  0.31150636     0.33600
H894        H  0.23120497  0.16080975  0.29251751     0.30300
H895        H  0.27309397  0.13740555  0.44248679     0.38100
H896        H  0.29921498  0.14970244  0.42234939     0.33600
O897        O  0.25187077  0.72435186  0.40480901    -0.86800
O898        O  0.24938386  0.72556078  0.59364496    -0.86900
O899        O  0.29337250  0.69559904  0.50191700    -0.88600
O900        O  0.20938918  0.69522320  0.49969235    -0.87300
O901        O  0.17758641  0.72638147  0.49985501    -0.86900
O902        O  0.32559510  0.72623855  0.50164428    -0.88300
O903        O  0.24810061  0.69519228  0.55278106    -0.86800
O904        O  0.25191646  0.69472001  0.44681821    -0.86400
Zr905      Zr  0.25117067  0.71677622  0.49953771     2.84300
O906        O  0.22471897  0.74294323  0.53194729    -1.08300
O907        O  0.27781607  0.74182501  0.46568327    -1.09100
C908        C  0.25211597  0.70093774  0.41603091     1.06400
C909        C  0.24784167  0.70200831  0.58329069     1.06300
C910        C  0.31751109  0.70274076  0.50284063     1.09300
C911        C  0.18536589  0.70269740  0.50009702     1.07100
H912        H  0.28797046  0.73122977  0.54746338     0.32600
O913        O  0.27728913  0.74216746  0.53359941    -1.29300
H914        H  0.21426232  0.73098220  0.45180171     0.32300
O915        O  0.22511103  0.74215109  0.46493180    -1.31000
O916        O  0.25108147  0.81141221  0.59177626    -0.86700
O917        O  0.24971513  0.81012440  0.40349232    -0.88200
O918        O  0.32532973  0.76776971  0.55311670    -0.86800
O919        O  0.17639641  0.76754685  0.55046752    -0.86900
O920        O  0.17707671  0.76632869  0.44381776    -0.86600
O921        O  0.32616326  0.76499851  0.44758707    -0.86400
O922        O  0.29436057  0.83999016  0.49523906    -0.86800
O923        O  0.21018995  0.84149815  0.49602619    -0.86200
O924        O  0.32594318  0.80896393  0.49850981    -0.87300
O925        O  0.17784147  0.81100991  0.49436333    -0.86400
O926        O  0.29413130  0.76637839  0.59366910    -0.86800
O927        O  0.29595370  0.76517525  0.40564859    -0.86600
O928        O  0.20842280  0.76397601  0.40345897    -0.86200
O929        O  0.20699667  0.76629822  0.59199362    -0.86600
O930        O  0.25292145  0.84154359  0.55032255    -0.86900
O931        O  0.24832889  0.84061162  0.44422850    -0.88300
Zr932      Zr  0.25076680  0.76829855  0.56659449     2.83100
Zr933      Zr  0.25178873  0.76728750  0.43044838     2.83500
Zr934      Zr  0.30365535  0.76772408  0.49973209     2.84100
Zr935      Zr  0.19865720  0.76853572  0.49752582     2.83400
Zr936      Zr  0.25178155  0.81925720  0.49760853     2.84200
O937        O  0.22556273  0.79354723  0.46380823    -1.08800
O938        O  0.27758991  0.79395705  0.53276623    -1.08300
C939        C  0.25209430  0.83494221  0.58100021     1.06300
C940        C  0.24808700  0.83373187  0.41373983     1.08900
C941        C  0.31819546  0.76670454  0.58350739     1.06500
C942        C  0.18305534  0.76609906  0.58113680     1.06900
C943        C  0.18431673  0.76422038  0.41350778     1.06400
C944        C  0.31980487  0.76412189  0.41688315     1.06000
C945        C  0.31846920  0.83263259  0.49632620     1.06400
C946        C  0.18600012  0.83460303  0.49429820     1.05900
H947        H  0.28924755  0.80395771  0.45062929     0.32600
O948        O  0.27816319  0.79336782  0.46434313    -1.29900
H949        H  0.21375056  0.80532202  0.54469678     0.32600
O950        O  0.22478807  0.79429208  0.53165128    -1.31300
N951        N  0.46066389  0.51622100  0.51126763    -0.36900
N952        N  0.00019495  0.55758610  0.51664356    -0.57400
N953        N  0.04082980  0.51900297  0.51421852    -0.36900
N954        N  0.00237316  0.97905963  0.46081231    -0.57400
C955        C  0.44549566  0.53663701  0.51872744     0.26700
C956        C  0.44791919  0.99430268  0.48285089     0.26700
C957        C  0.05532430  0.54002432  0.52111348     0.26700
C958        C  0.05632362  0.99934643  0.47086349     0.26700
C959        C  0.47766962  0.57135203  0.50666476     0.35300
C960        C  0.02095558  0.57312519  0.51152525     0.35300
C961        C  0.48294179  0.96311773  0.46856647     0.35300
C962        C  0.02427400  0.96476734  0.45725828     0.35300
C963        C  0.42149167  0.52817774  0.53035658    -0.22200
C964        C  0.42382054  0.00015222  0.49656734    -0.22200
C965        C  0.08025715  0.53253108  0.53092323    -0.22200
C966        C  0.08032260  0.00760030  0.48294680    -0.22200
C967        C  0.48423783  0.59659624  0.49920443    -0.23200
C968        C  0.01261700  0.59784679  0.50393051    -0.23200
C969        C  0.49185639  0.93887495  0.45992885    -0.23200
C970        C  0.01770671  0.93967711  0.44926295    -0.23200
C971        C  0.45205826  0.56259785  0.51294451    -0.18600
C972        C  0.45673454  0.96920022  0.47581009    -0.18600
C973        C  0.04991368  0.97337350  0.46439989    -0.18600
C974        C  0.04729726  0.56568077  0.51577464    -0.18600
H975        H  0.40498321  0.53983258  0.53775803     0.14300
H976        H  0.40885241  0.98681279  0.50459057     0.14300
H977        H  0.09662939  0.54478316  0.53724597     0.14300
H978        H  0.09709893  0.99587392  0.48946193     0.14300
H979        H  0.47118356  0.61287466  0.49630851     0.12600
H980        H  0.02456447  0.61465392  0.49927063     0.12600
H981        H  0.48026521  0.92187262  0.45504350     0.12600
H982        H  0.03085194  0.92356484  0.44588728     0.12600
H983        H  0.47797126  0.51683421  0.49807642     0.25900
H984        H  0.02295032  0.51898073  0.50200897     0.25900
O985        O  0.49566596  0.93682871  0.90414086    -0.86800
O986        O  0.49847763  0.93711027  0.09361649    -0.86900
O987        O  0.03659667  0.90518303  0.99593805    -0.88600
O988        O  0.45419098  0.90629709  0.00010177    -0.87300
O989        O  0.42208809  0.93695015  0.99914854    -0.86900
O990        O  0.06872042  0.93591706  0.99627521    -0.88300
O991        O  0.49819375  0.90714679  0.05226439    -0.86800
O992        O  0.49680561  0.90693947  0.94584996    -0.86400
Zr993      Zr  0.49606809  0.92858230  0.99885752     2.84300
O994        O  0.47033549  0.95345802  0.03372872    -1.08300
O995        O  0.02162171  0.95275905  0.96410488    -1.09100
C996        C  0.49625723  0.91329343  0.91509308     1.06400
C997        C  0.49908274  0.91363448  0.08289658     1.06300
C998        C  0.06069893  0.91236473  0.99545301     1.09300
C999        C  0.42995946  0.91340207  0.99990678     1.07100
H1000       H  0.03340955  0.94138023  0.04500768     0.32600
O1001       O  0.02223280  0.95238982  0.03187654    -1.29300
H1002       H  0.45796639  0.94255678  0.95130370     0.32300
O1003       O  0.46911446  0.95343390  0.96456134    -1.31000
O1004       O  0.49906385  0.52249101  0.09507127    -0.86700
O1005       O  0.49744686  0.52301200  0.90606686    -0.88200
O1006       O  0.07122412  0.97837572  0.05018045    -0.86800
O1007       O  0.42282259  0.97892499  0.05338929    -0.86900
O1008       O  0.42079742  0.98327990  0.94715582    -0.86600
O1009       O  0.07026093  0.97743628  0.94491788    -0.86400
O1010       O  0.03729202  0.55345797  0.00034922    -0.86800
O1011       O  0.45425999  0.55247010  0.99948085    -0.86200
O1012       O  0.06935474  0.52262352  0.00189543    -0.87300
O1013       O  0.42308604  0.52094851  0.99864782    -0.86400
O1014       O  0.04133813  0.97927543  0.09197654    -0.86800
O1015       O  0.04063196  0.48018820  0.90443653    -0.86600
O1016       O  0.45366422  0.48320442  0.90591558    -0.86200
O1017       O  0.45370259  0.98008862  0.09442744    -0.86600
O1018       O  0.49869256  0.55249015  0.05368334    -0.86900
O1019       O  0.49619867  0.55273194  0.94742851    -0.88300
Zr1020     Zr  0.49701984  0.97984481  0.06706742     2.83100
Zr1021     Zr  0.49492312  0.97989439  0.93005813     2.83500
Zr1022     Zr  0.04820118  0.97813871  0.99774999     2.84100
Zr1023     Zr  0.44352278  0.97848564  0.99964745     2.83400
Zr1024     Zr  0.49678769  0.53111975  0.00054500     2.84200
O1025       O  0.47143267  0.50526465  0.96641023    -1.08800
O1026       O  0.02259031  0.50519767  0.03246405    -1.08300
C1027       C  0.49967790  0.54603643  0.08440228     1.06300
C1028       C  0.49659277  0.54653022  0.91671138     1.08900
C1029       C  0.06523939  0.97946889  0.08097253     1.06500
C1030       C  0.42958593  0.97985691  0.08401681     1.06900
C1031       C  0.42978438  0.48517016  0.91678727     1.06400
C1032       C  0.06462544  0.48031636  0.91540612     1.06000
C1033       C  0.06137366  0.54624737  0.00239794     1.06400
C1034       C  0.43024284  0.54467262  0.99885736     1.05900
H1035       H  0.03351567  0.51706446  0.95133769     0.32600
O1036       O  0.02254241  0.50591816  0.96448141    -1.29900
H1037       H  0.45976145  0.51666069  0.04792716     0.32600
O1038       O  0.47077135  0.50566531  0.03475130    -1.31300
N1039       N  0.28610144  0.72955620  0.01255670    -0.36900
N1040       N  0.24632885  0.69050390  0.01845566    -0.57400
N1041       N  0.20596132  0.72976579  0.01647643    -0.36900
N1042       N  0.24564446  0.76875688  0.00766652    -0.57400
C1043       C  0.30054903  0.70825259  0.00687991     0.26700
C1044       C  0.30010578  0.74987716  0.00164723     0.26700
C1045       C  0.19139078  0.70839598  0.01192969     0.26700
C1046       C  0.19110274  0.74999663  0.00696701     0.26700
C1047       C  0.26765312  0.67578661  0.02415352     0.35300
C1048       C  0.22536484  0.67588941  0.02603405     0.35300
C1049       C  0.26687979  0.78397292  0.01052368     0.35300
C1050       C  0.22472132  0.78405026  0.01265102     0.35300
C1051       C  0.32414122  0.71520291  0.99251985    -0.22200
C1052       C  0.32392340  0.74153189  0.98943329    -0.22200
C1053       C  0.16680819  0.71517199  0.00003635    -0.22200
C1054       C  0.16666290  0.74146150  0.99680026    -0.22200
C1055       C  0.26020935  0.65174125  0.03568334    -0.23200
C1056       C  0.23334184  0.65175899  0.03667469    -0.23200
C1057       C  0.25947116  0.80907509  0.01718066    -0.23200
C1058       C  0.23265422  0.80911272  0.01860785    -0.23200
C1059       C  0.29342459  0.68285637  0.01558931    -0.18600
C1060       C  0.29267284  0.77586341  0.00449208    -0.18600
C1061       C  0.19857534  0.77604118  0.00888304    -0.18600
C1062       C  0.19923166  0.68307849  0.01975684    -0.18600
H1063       H  0.33999039  0.70266643  0.98521626     0.14300
H1064       H  0.33955004  0.75321691  0.97943053     0.14300
H1065       H  0.15056686  0.70253578  0.99442014     0.14300
H1066       H  0.15035483  0.75297216  0.98809708     0.14300
H1067       H  0.27278225  0.63563174  0.04180909     0.12600
H1068       H  0.22107236  0.63566423  0.04360593     0.12600
H1069       H  0.27204402  0.82568387  0.02007362     0.12600
H1070       H  0.22038991  0.82574976  0.02287177     0.12600
H1071       H  0.26907681  0.73051772  0.02639515     0.25900
H1072       H  0.22386367  0.73071805  0.02865214     0.25900
C1073       C  0.50083548  0.70543219  0.23067306     0.86200
C1074       C  0.02481564  0.70796088  0.25150280    -0.54000
C1075       C  0.02572217  0.73067653  0.26812605     0.09100
C1076       C  0.50153379  0.74925017  0.26253686     0.20100
C1077       C  0.47770420  0.70919614  0.25439955    -0.54700
C1078       C  0.47748239  0.73214808  0.27071020     0.09300
C1079       C  0.49965164  0.72956845  0.20837863    -0.54300
C1080       C  0.50022854  0.75264266  0.22472309     0.09800
H1081       H  0.04053935  0.69389755  0.25284506     0.14300
H1082       H  0.50175830  0.76771342  0.27597765     0.00100
H1083       H  0.46201582  0.69557170  0.25786105     0.14600
H1084       H  0.49875499  0.72835231  0.18176255     0.14400
C1085       C  0.24927739  0.54183846  0.26902371     0.86200
C1086       C  0.27191020  0.53786367  0.24439702    -0.54000
C1087       C  0.27183669  0.01506788  0.22765854     0.09100
C1088       C  0.24760627  0.99863638  0.23656552     0.20100
C1089       C  0.22444220  0.53748008  0.24801551    -0.54700
C1090       C  0.22375959  0.01631283  0.22927698     0.09300
C1091       C  0.24987747  0.01905417  0.29022834    -0.54300
C1092       C  0.24856735  0.99599706  0.27431507     0.09800
H1093       H  0.28774070  0.55121221  0.24004642     0.14300
H1094       H  0.24703233  0.97966860  0.22424303     0.00100
H1095       H  0.20920384  0.55196930  0.24604996     0.14600
H1096       H  0.25068784  0.02037199  0.31685153     0.14400
C1097       C  0.50085501  0.70650603  0.76800367     0.86200
C1098       C  0.47690024  0.70984919  0.74539662    -0.54000
C1099       C  0.47587380  0.73278082  0.72897884     0.09100
C1100       C  0.49976981  0.75028529  0.73542673     0.20100
C1101       C  0.02361648  0.70952524  0.74263535    -0.54700
C1102       C  0.02368356  0.73220698  0.72531668     0.09300
C1103       C  0.50093129  0.73065606  0.78989317    -0.54300
C1104       C  0.50019129  0.75358578  0.77312920     0.09800
H1105       H  0.46152946  0.69549511  0.74330421     0.14300
H1106       H  0.49887513  0.76867177  0.72152525     0.00100
H1107       H  0.03978582  0.69628185  0.74064998     0.14600
H1108       H  0.50134676  0.72962443  0.81656163     0.14400
C1109       C  0.24418953  0.54163658  0.73082228     0.86200
C1110       C  0.22114144  0.53661883  0.75458088    -0.54000
C1111       C  0.22081423  0.01199256  0.77035549     0.09100
C1112       C  0.24534442  0.99588903  0.76191064     0.20100
C1113       C  0.26857035  0.53880946  0.75311869    -0.54700
C1114       C  0.26911349  0.01360752  0.76849715     0.09300
C1115       C  0.24301734  0.01657495  0.70813414    -0.54300
C1116       C  0.24450637  0.99338730  0.72416609     0.09800
H1117       H  0.20482460  0.54951505  0.75847418     0.14300
H1118       H  0.24623762  0.97718252  0.77514655     0.00100
H1119       H  0.28318447  0.55386014  0.75551828     0.14600
H1120       H  0.24233135  0.01809992  0.68150887     0.14400
C1121       C  0.08811600  0.98224578  0.10445087    -0.20100
C1122       C  0.08611015  0.98021522  0.13912806     0.36100
C1123       C  0.10859769  0.98413861  0.15905301    -0.26100
C1124       C  0.13284758  0.99178005  0.14566018     0.02500
C1125       C  0.13472325  0.49440325  0.11346845     0.27300
C1126       C  0.11301138  0.48990654  0.09284335    -0.25200
N1127       N  0.06148956  0.97405200  0.15421897    -0.82600
H1128       H  0.10701228  0.98162278  0.18540026     0.13100
C1129       C  0.15594456  0.99762996  0.16781084     0.02500
N1130       N  0.15878298  0.50399890  0.09981671    -0.81200
H1131       H  0.11542888  0.49288496  0.06671041     0.18000
C1132       C  0.18017621  0.48463166  0.16352169    -0.26000
C1133       C  0.20242562  0.49063349  0.18268764     0.36000
C1134       C  0.20068461  0.00929561  0.20783112    -0.20100
C1135       C  0.17547570  0.01814367  0.21612753    -0.25300
C1136       C  0.15337645  0.01311254  0.19618304     0.27400
H1137       H  0.18249181  0.47213726  0.14248267     0.13100
N1138       N  0.22743004  0.48118742  0.17254670    -0.82600
H1139       H  0.17291300  0.02933741  0.23825827     0.18000
N1140       N  0.12845711  0.02420442  0.20438883    -0.81200
H1141       H  0.23097935  0.48780838  0.14867423     0.33600
H1142       H  0.22651832  0.46109175  0.17193384     0.38100
H1143       H  0.12981263  0.03493296  0.22600833     0.33600
H1144       H  0.12342008  0.03712538  0.18562629     0.30300
H1145       H  0.15733823  0.50587098  0.07427554     0.33600
H1146       H  0.16177616  0.52250220  0.10909353     0.30300
H1147       H  0.04926309  0.99003629  0.15123090     0.38100
H1148       H  0.06382376  0.97162150  0.17959126     0.33600
C1149       C  0.40726176  0.98127281  0.10803417    -0.20100
C1150       C  0.41009724  0.98928885  0.14118093     0.36100
C1151       C  0.38756316  0.99210429  0.16109465    -0.26100
C1152       C  0.36228183  0.98763638  0.14852446     0.02500
C1153       C  0.35945751  0.97922337  0.11593237     0.27300
C1154       C  0.38176288  0.97593960  0.09629163    -0.25200
N1155       N  0.43463350  0.48876265  0.15648621    -0.82600
H1156       H  0.38841008  0.49357942  0.18706227     0.13100
C1157       C  0.33864121  0.99378249  0.16849479     0.02500
N1158       N  0.33375435  0.97467267  0.10259962    -0.81200
H1159       H  0.37895644  0.96963388  0.07120078     0.18000
C1160       C  0.32258209  0.51707911  0.16040014    -0.26000
C1161       C  0.30030742  0.52326851  0.17909154     0.36000
C1162       C  0.29331163  0.00688025  0.20503131    -0.20100
C1163       C  0.30603422  0.98320754  0.21021062    -0.25300
C1164       C  0.32864347  0.97650381  0.19218312     0.27400
H1165       H  0.32841260  0.52958996  0.14034226     0.13100
N1166       N  0.28522091  0.54589388  0.17141548    -0.82600
H1167       H  0.29883186  0.97031684  0.22912542     0.18000
N1168       N  0.34169209  0.95241742  0.19810807    -0.81200
H1169       H  0.29323793  0.55565552  0.15130700     0.33600
H1170       H  0.26652439  0.53985779  0.16424122     0.38100
H1171       H  0.33203963  0.94198283  0.21644658     0.33600
H1172       H  0.34027040  0.94155143  0.17660769     0.30300
H1173       H  0.33489304  0.96901780  0.07801682     0.33600
H1174       H  0.32561391  0.95920776  0.11551641     0.30300
H1175       H  0.44340241  0.50568412  0.14794651     0.38100
H1176       H  0.43298938  0.49074774  0.18196033     0.33600
C1177       C  0.49910146  0.77822315  0.20713462    -0.20100
C1178       C  0.01311578  0.79835375  0.21636809     0.36100
C1179       C  0.01192099  0.82125951  0.19756452    -0.26100
C1180       C  0.49731030  0.82530233  0.17104832     0.02500
C1181       C  0.48206625  0.80414129  0.16096090     0.27300
C1182       C  0.48302985  0.78094700  0.17906728    -0.25200
N1183       N  0.03034054  0.79687524  0.24431656    -0.82600
H1184       H  0.02385349  0.83762099  0.20446506     0.13100
C1185       C  0.49897664  0.84898253  0.15027146     0.02500
N1186       N  0.46591480  0.80625052  0.13203433    -0.81200
H1187       H  0.47110748  0.76487946  0.17114808     0.18000
C1188       C  0.01365302  0.84716264  0.12096532    -0.26000
C1189       C  0.01454403  0.86868127  0.09983585     0.36000
C1190       C  0.50084049  0.89207831  0.10718682    -0.20100
C1191       C  0.48750843  0.89354083  0.13732383    -0.25300
C1192       C  0.48637787  0.87216470  0.15890431     0.27400
H1193       H  0.02577269  0.83052967  0.11592201     0.13100
N1194       N  0.03190544  0.86876319  0.07207012    -0.82600
H1195       H  0.47712756  0.91104598  0.14347395     0.18000
N1196       N  0.47209096  0.87372760  0.18917851    -0.81200
H1197       H  0.04241493  0.85152273  0.07089308     0.33600
H1198       H  0.04566191  0.88338684  0.07574052     0.38100
H1199       H  0.46414415  0.89212466  0.19204858     0.33600
H1200       H  0.45628530  0.86100428  0.18755496     0.30300
H1201       H  0.45603606  0.78897511  0.12766599     0.33600
H1202       H  0.45157945  0.82013255  0.13664843     0.30300
H1203       H  0.04498355  0.78358204  0.23883680     0.38100
H1204       H  0.03977197  0.81446838  0.24814123     0.33600
C1205       C  0.50213074  0.67989170  0.21127813    -0.20100
C1206       C  0.02107976  0.67483230  0.18662009     0.36100
C1207       C  0.02194473  0.65194690  0.16826764    -0.26100
C1208       C  0.50484359  0.63346057  0.17408878     0.02500
C1209       C  0.48473624  0.63695087  0.19720640     0.27300
C1210       C  0.48373786  0.65978998  0.21573066    -0.25200
N1211       N  0.04018068  0.69443691  0.18043484    -0.82600
H1212       H  0.03668462  0.64982784  0.14937890     0.13100
C1213       C  0.50474532  0.61090824  0.15146712     0.02500
N1214       N  0.46493636  0.61750906  0.20119434    -0.81200
H1215       H  0.46815075  0.66135704  0.23324213     0.18000
C1216       C  0.00854119  0.58454905  0.16258585    -0.26000
C1217       C  0.00753720  0.56297043  0.14146582     0.36000
C1218       C  0.50170377  0.56778322  0.10858305    -0.20100
C1219       C  0.50042392  0.59325363  0.09646548    -0.25300
C1220       C  0.50175893  0.61464226  0.11737517     0.27400
H1221       H  0.01359291  0.58193945  0.18828347     0.13100
N1222       N  0.01335912  0.53775840  0.15422473    -0.82600
H1223       H  0.49795970  0.59672599  0.07037602     0.18000
N1224       N  0.49952745  0.64026589  0.10412780    -0.81200
H1225       H  0.01697405  0.53850208  0.17952315     0.33600
H1226       H  0.03078755  0.53163293  0.14335077     0.38100
H1227       H  0.49755111  0.63982063  0.07854928     0.33600
H1228       H  0.48225665  0.64830804  0.11323600     0.30300
H1229       H  0.45150174  0.62280960  0.21926380     0.33600
H1230       H  0.45443519  0.61637851  0.17912294     0.30300
H1231       H  0.03885488  0.69975474  0.15566470     0.38100
H1232       H  0.05876052  0.68656771  0.18455357     0.33600
C1233       C  0.08074863  0.89201137  0.99475571    -0.20100
C1234       C  0.07561224  0.86751628  0.98102239     0.36100
C1235       C  0.09477674  0.84828660  0.98337745    -0.26100
C1236       C  0.11894574  0.85340700  0.99819269     0.02500
C1237       C  0.12455271  0.87794992  0.01066555     0.27300
C1238       C  0.10531487  0.89704838  0.00896755    -0.25200
N1239       N  0.05126135  0.86236888  0.96437838    -0.82600
H1240       H  0.09102372  0.82932176  0.97342753     0.13100
C1241       C  0.13847386  0.83290064  0.00051388     0.02500
N1242       N  0.14979482  0.88330301  0.02488816    -0.81200
H1243       H  0.10938015  0.91578686  0.01938082     0.18000
C1244       C  0.15764717  0.83122865  0.97618666    -0.26000
C1245       C  0.17736393  0.81267399  0.97847735     0.36000
C1246       C  0.17796253  0.79585028  0.00567487    -0.20100
C1247       C  0.15855648  0.79739973  0.02986547    -0.25300
C1248       C  0.13864110  0.81585219  0.02747724     0.27400
H1249       H  0.15733247  0.84444481  0.95549491     0.13100
N1250       N  0.19671091  0.81083479  0.95320278    -0.82600
H1251       H  0.15907570  0.78422646  0.05058748     0.18000
N1252       N  0.11858851  0.81737754  0.05210665    -0.81200
H1253       H  0.20630291  0.82856191  0.95150983     0.33600
H1254       H  0.18706407  0.80755755  0.93089290     0.38100
H1255       H  0.12140066  0.80317116  0.07006185     0.33600
H1256       H  0.12055247  0.83507696  0.06396718     0.30300
H1257       H  0.15089033  0.90247735  0.03244144     0.33600
H1258       H  0.15177033  0.87200350  0.04607630     0.30300
H1259       H  0.05049191  0.87417411  0.94350568     0.38100
H1260       H  0.05070076  0.84339391  0.95595795     0.33600
C1261       C  0.40972294  0.89297340  0.00003891    -0.20100
C1262       C  0.38383288  0.89769958  0.01092980     0.36100
C1263       C  0.36528857  0.87786509  0.00950677    -0.26100
C1264       C  0.37213861  0.85349951  0.99801344     0.02500
C1265       C  0.39775894  0.84852289  0.98738033     0.27300
C1266       C  0.41638037  0.86829097  0.98870206    -0.25200
N1267       N  0.37658209  0.92227390  0.02422978    -0.82600
H1268       H  0.34549049  0.88120230  0.01802280     0.13100
C1269       C  0.35248312  0.83298230  0.99916726     0.02500
N1270       N  0.40463006  0.82352026  0.97508364    -0.81200
H1271       H  0.43616250  0.86434961  0.98082488     0.18000
C1272       C  0.33642117  0.82876095  0.97172969    -0.26000
C1273       C  0.31658788  0.81012240  0.97282774     0.36000
C1274       C  0.31326115  0.79558748  0.00182781    -0.20100
C1275       C  0.32949985  0.79969006  0.02908258    -0.25300
C1276       C  0.34913501  0.81841448  0.02807934     0.27400
H1277       H  0.33921248  0.84022800  0.94970492     0.13100
N1278       N  0.30010318  0.80562272  0.94469036    -0.82600
H1279       H  0.32662305  0.78836629  0.05121467     0.18000
N1280       N  0.36534790  0.82312186  0.05640758    -0.81200
H1281       H  0.30562416  0.81753500  0.92513247     0.33600
H1282       H  0.28102721  0.81097141  0.95089554     0.38100
H1283       H  0.35995303  0.81106052  0.07587382     0.33600
H1284       H  0.38456941  0.81820632  0.05031989     0.30300
H1285       H  0.42421830  0.82318072  0.96770419     0.33600
H1286       H  0.40299203  0.81034319  0.99444796     0.30300
H1287       H  0.38711559  0.92470651  0.04609482     0.38100
H1288       H  0.35675765  0.92253865  0.03057658     0.33600
C1289       C  0.40927591  0.56437589  0.99871785    -0.20100
C1290       C  0.38386550  0.55894007  0.01090482     0.36100
C1291       C  0.36501236  0.57853077  0.01135056    -0.26100
C1292       C  0.37098764  0.60331576  0.00024461     0.02500
C1293       C  0.39584750  0.60868168  0.98715352     0.27300
C1294       C  0.41482766  0.58915803  0.98658989    -0.25200
N1295       N  0.37740286  0.53386221  0.02362261    -0.82600
H1296       H  0.34573381  0.57470301  0.02129987     0.13100
C1297       C  0.35118128  0.62370013  0.00368215     0.02500
N1298       N  0.40165402  0.63395797  0.97466724    -0.81200
H1299       H  0.43401863  0.59332917  0.97662488     0.18000
C1300       C  0.35514220  0.64295798  0.02718917    -0.26000
C1301       C  0.33623438  0.66212502  0.03215190     0.36000
C1302       C  0.31337927  0.66223630  0.01256277    -0.20100
C1303       C  0.30953713  0.64296214  0.98898338    -0.25300
C1304       C  0.32812850  0.62345508  0.98461863     0.27400
H1305       H  0.37283629  0.64272448  0.04200551     0.13100
N1306       N  0.34010556  0.68151485  0.05678639    -0.82600
H1307       H  0.29196245  0.64323589  0.97394886     0.18000
N1308       N  0.32376176  0.60338833  0.96101745    -0.81200
H1309       H  0.35801709  0.67877989  0.06886687     0.33600
H1310       H  0.32548362  0.67915002  0.07445557     0.38100
H1311       H  0.30569509  0.60590111  0.94923008     0.33600
H1312       H  0.33813855  0.60509430  0.94291729     0.30300
H1313       H  0.42085641  0.63475739  0.96588998     0.33600
H1314       H  0.38936683  0.63730397  0.95446274     0.30300
H1315       H  0.38854194  0.53091990  0.04494093     0.38100
H1316       H  0.35776853  0.53304964  0.03076029     0.33600
C1317       C  0.08117114  0.56681645  0.00605637    -0.20100
C1318       C  0.10356943  0.56335464  0.02608685     0.36100
C1319       C  0.12182990  0.58333860  0.02898647    -0.26100
C1320       C  0.11789106  0.60685088  0.01289742     0.02500
C1321       C  0.09519553  0.61079385  0.99373178     0.27300
C1322       C  0.07702300  0.59067998  0.99043777    -0.25200
N1323       N  0.10742356  0.53981985  0.04403955    -0.82600
H1324       H  0.13932132  0.58058239  0.04378820     0.13100
C1325       C  0.13843084  0.62667613  0.01523138     0.02500
N1326       N  0.09080307  0.63515163  0.97772859    -0.81200
H1327       H  0.05966767  0.59356845  0.97543402     0.18000
C1328       C  0.15239455  0.63319700  0.98682654    -0.26000
C1329       C  0.17294242  0.65099549  0.98813842     0.36000
C1330       C  0.17916385  0.66268941  0.01831198    -0.20100
C1331       C  0.16533322  0.65617546  0.04679172    -0.25300
C1332       C  0.14499860  0.63804723  0.04558691     0.27400
H1333       H  0.14743385  0.62407940  0.96371700     0.13100
N1334       N  0.18726876  0.65766189  0.95897088    -0.82600
H1335       H  0.17031270  0.66542648  0.06980539     0.18000
N1336       N  0.13092922  0.63118144  0.07487113    -0.81200
H1337       H  0.17996276  0.64761903  0.93869756     0.33600
H1338       H  0.20660455  0.65153631  0.96237131     0.38100
H1339       H  0.13836085  0.64114180  0.09514475     0.33600
H1340       H  0.11153308  0.63720058  0.07174424     0.30300
H1341       H  0.07319898  0.63488469  0.96450163     0.33600
H1342       H  0.08867359  0.64902983  0.99605538     0.30300
H1343       H  0.09234348  0.53840542  0.06126733     0.38100
H1344       H  0.12491917  0.54048537  0.05745010     0.33600
C1345       C  0.40518250  0.98923252  0.89273860    -0.20100
C1346       C  0.38747884  0.50738025  0.90068371     0.36100
C1347       C  0.36519197  0.50931316  0.88019880    -0.26100
C1348       C  0.36149233  0.99424853  0.84951147     0.02500
C1349       C  0.38323265  0.97891608  0.84062151     0.27300
C1350       C  0.40480600  0.97657350  0.86230993    -0.25200
N1351       N  0.38983678  0.52365693  0.92905843    -0.82600
H1352       H  0.34988818  0.52295972  0.88612369     0.13100
C1353       C  0.33770912  0.99674990  0.82793996     0.02500
N1354       N  0.38314889  0.96542384  0.80986801    -0.81200
H1355       H  0.42106299  0.96421351  0.85584528     0.18000
C1356       C  0.34038458  0.00521643  0.79530479    -0.26000
C1357       C  0.31832316  0.00940763  0.77503916     0.36000
C1358       C  0.29285453  0.00599154  0.78793484    -0.20100
C1359       C  0.29128399  0.49782190  0.82120771    -0.25300
C1360       C  0.31319892  0.49247292  0.84162880     0.27400
H1361       H  0.35978058  0.00898873  0.78573241     0.13100
N1362       N  0.32167207  0.01707023  0.74130983    -0.82600
H1363       H  0.27170133  0.49412627  0.83023085     0.18000
N1364       N  0.30956154  0.48182910  0.87395195    -0.81200
H1365       H  0.34155332  0.01856560  0.73555997     0.33600
H1366       H  0.31403834  0.00241531  0.72657603     0.38100
H1367       H  0.28964028  0.47913445  0.87871807     0.33600
H1368       H  0.31818797  0.46357861  0.87430465     0.30300
H1369       H  0.40058275  0.95514592  0.80691536     0.33600
H1370       H  0.36803258  0.95187820  0.81067700     0.30300
H1371       H  0.40589580  0.53579024  0.92531200     0.38100
H1372       H  0.37342778  0.53555711  0.93130210     0.33600
C1373       C  0.19860329  0.00337518  0.79171009    -0.20100
C1374       C  0.18518035  0.97994586  0.78630422     0.36100
C1375       C  0.16245826  0.97420461  0.80471801    -0.26100
C1376       C  0.15536538  0.49395805  0.83076993     0.02500
C1377       C  0.17565940  0.50955991  0.84352030     0.27300
C1378       C  0.19794274  0.51485722  0.82417890    -0.25200
N1379       N  0.19407703  0.96248384  0.76145468    -0.82600
H1380       H  0.15205850  0.95634132  0.80052469     0.13100
C1381       C  0.13125639  0.48844565  0.85042268     0.02500
N1382       N  0.17326993  0.52040184  0.87581912    -0.81200
H1383       H  0.21318801  0.52733040  0.83363842     0.18000
C1384       C  0.13349590  0.47448230  0.87984823    -0.26000
C1385       C  0.11173754  0.47046128  0.90029484     0.36000
C1386       C  0.08535212  0.97773315  0.88989506    -0.20100
C1387       C  0.08221921  0.99020496  0.85935210    -0.25300
C1388       C  0.10368653  0.99392240  0.83800039     0.27400
H1389       H  0.15240487  0.46686078  0.88721870     0.13100
N1390       N  0.11498067  0.45571769  0.92990504    -0.82600
H1391       H  0.06323359  0.99798588  0.85266426     0.18000
N1392       N  0.10008395  0.00671176  0.80690434    -0.81200
H1393       H  0.12925000  0.46467851  0.94437891     0.33600
H1394       H  0.12190980  0.43746890  0.92358996     0.38100
H1395       H  0.08038852  0.01156265  0.80338996     0.33600
H1396       H  0.11047731  0.02401353  0.80755137     0.30300
H1397       H  0.18978827  0.53140138  0.88159699     0.33600
H1398       H  0.15733426  0.53304627  0.87540698     0.30300
H1399       H  0.19161347  0.97163809  0.73871875     0.38100
H1400       H  0.18230531  0.94603417  0.76088846     0.33600
C1401       C  0.49978510  0.68114340  0.78829553    -0.20100
C1402       C  0.47837470  0.67622980  0.80960412     0.36100
C1403       C  0.47757190  0.65363588  0.82881636    -0.26100
C1404       C  0.99608619  0.63450938  0.82507931     0.02500
C1405       C  0.01672678  0.63804335  0.80269979     0.27300
C1406       C  0.01774095  0.66060780  0.78332074    -0.25200
N1407       N  0.45727535  0.69428755  0.81200682    -0.82600
H1408       H  0.46112649  0.65047138  0.84510160     0.13100
C1409       C  0.49703403  0.61247613  0.85007764     0.02500
N1410       N  0.03695639  0.61888603  0.80024794    -0.81200
H1411       H  0.03376188  0.66225729  0.76641962     0.18000
C1412       C  0.49548025  0.58745197  0.83724206    -0.26000
C1413       C  0.49484024  0.56553684  0.85802683     0.36000
C1414       C  0.49631541  0.56866246  0.89263941    -0.20100
C1415       C  0.99866191  0.59362919  0.90278741    -0.25300
C1416       C  0.99888791  0.61518191  0.88179723     0.27400
H1417       H  0.49444496  0.58505629  0.81082704     0.13100
N1418       N  0.49261302  0.54032041  0.84393176    -0.82600
H1419       H  0.00163851  0.59671506  0.92884127     0.18000
N1420       N  0.00288779  0.64053712  0.89492082    -0.81200
H1421       H  0.49275311  0.54139904  0.81826247     0.33600
H1422       H  0.47426318  0.53301241  0.85043964     0.38100
H1423       H  0.00492021  0.63982159  0.92049200     0.33600
H1424       H  0.02063175  0.64746165  0.88568488     0.30300
H1425       H  0.05078951  0.62418809  0.78260037     0.33600
H1426       H  0.04685591  0.61824550  0.82279502     0.30300
H1427       H  0.43990580  0.68480707  0.80574957     0.38100
H1428       H  0.45586602  0.70012523  0.83649355     0.33600
C1429       C  0.49619074  0.89150376  0.89100220    -0.20100
C1430       C  0.48526646  0.86727369  0.89948701     0.36100
C1431       C  0.48737198  0.84643490  0.87773305    -0.26100
C1432       C  0.99605138  0.84849754  0.84644799     0.02500
C1433       C  0.01066838  0.87097561  0.83987249     0.27300
C1434       C  0.00883929  0.89226958  0.86128749    -0.25200
N1435       N  0.47145351  0.86399823  0.92991379    -0.82600
H1436       H  0.47937466  0.82786791  0.88461437     0.13100
C1437       C  0.99875137  0.82481369  0.82605637     0.02500
N1438       N  0.02764794  0.87188958  0.81182240    -0.81200
H1439       H  0.02073802  0.90916976  0.85679887     0.18000
C1440       C  0.48352163  0.82226451  0.79984956    -0.26000
C1441       C  0.48291124  0.79896025  0.78219998     0.36000
C1442       C  0.50061212  0.77900224  0.79026576    -0.20100
C1443       C  0.01449792  0.78090226  0.81868436    -0.25300
C1444       C  0.01358728  0.80366655  0.83740515     0.27400
H1445       H  0.46933656  0.83715910  0.79413147     0.13100
N1446       N  0.46343216  0.79520573  0.75726497    -0.82600
H1447       H  0.02619912  0.76493573  0.82760301     0.18000
N1448       N  0.02739287  0.80530707  0.86820197    -0.81200
H1449       H  0.44500564  0.79753352  0.76797269     0.33600
H1450       H  0.46573261  0.80959362  0.73947304     0.38100
H1451       H  0.03713708  0.78804848  0.87336966     0.33600
H1452       H  0.04182178  0.81944370  0.86570883     0.30300
H1453       H  0.03689919  0.88979464  0.81024791     0.33600
H1454       H  0.04242120  0.85822883  0.81551832     0.30300
H1455       H  0.45485634  0.87576387  0.92870577     0.38100
H1456       H  0.46468133  0.84511068  0.93245846     0.33600
C1457       C  0.33972137  0.76505259  0.60812952    -0.20100
C1458       C  0.36197021  0.78108751  0.60560491     0.36100
C1459       C  0.38362029  0.77691709  0.62652162    -0.26100
C1460       C  0.38386087  0.75668044  0.64953047     0.02500
C1461       C  0.36139158  0.74087411  0.65240964     0.27300
C1462       C  0.33941571  0.74550568  0.63205332    -0.25200
N1463       N  0.36255342  0.80142674  0.58152708    -0.82600
H1464       H  0.40058752  0.78933693  0.62459004     0.13100
C1465       C  0.40794944  0.75189033  0.66982381     0.02500
N1466       N  0.36132412  0.71961377  0.67515185    -0.81200
H1467       H  0.32251925  0.73295027  0.63366448     0.18000
C1468       C  0.40597422  0.75044620  0.70420666    -0.26000
C1469       C  0.42785358  0.74437439  0.72398211     0.36000
C1470       C  0.45255219  0.74053869  0.70917230    -0.20100
C1471       C  0.45485745  0.74313339  0.67502720    -0.25300
C1472       C  0.43275785  0.74826374  0.65511437     0.27400
H1473       H  0.38713252  0.75367207  0.71563345     0.13100
N1474       N  0.42512242  0.74251700  0.75907898    -0.82600
H1475       H  0.47380962  0.74014726  0.66377322     0.18000
N1476       N  0.43528650  0.74905702  0.61994899    -0.81200
H1477       H  0.40613538  0.74754709  0.76613017     0.33600
H1478       H  0.42742457  0.72320464  0.76564663     0.38100
H1479       H  0.45475157  0.74603599  0.61307332     0.33600
H1480       H  0.42447438  0.73370833  0.61039701     0.30300
H1481       H  0.34344194  0.70983934  0.67418358     0.33600
H1482       H  0.37566536  0.70658660  0.66755669     0.30300
H1483       H  0.34789796  0.81461881  0.58758109     0.38100
H1484       H  0.38033514  0.81136358  0.58262316     0.33600
C1485       C  0.16101297  0.76363572  0.60507468    -0.20100
C1486       C  0.16233385  0.74732680  0.63302446     0.36100
C1487       C  0.13965072  0.74325630  0.65219562    -0.26100
C1488       C  0.11558415  0.75491731  0.64404041     0.02500
C1489       C  0.11436654  0.77133051  0.61636709     0.27300
C1490       C  0.13702325  0.77569507  0.59750961    -0.25200
N1491       N  0.18615319  0.73381019  0.64084202    -0.82600
H1492       H  0.14062330  0.73060424  0.67340842     0.13100
C1493       C  0.09158993  0.74919203  0.66393027     0.02500
N1494       N  0.08986139  0.78283166  0.60682218    -0.81200
H1495       H  0.13573428  0.78808905  0.57607006     0.18000
C1496       C  0.07811537  0.76925428  0.67958093    -0.26000
C1497       C  0.05582381  0.76452029  0.69923466     0.36000
C1498       C  0.04607751  0.73909221  0.70261329    -0.20100
C1499       C  0.05919427  0.71922923  0.68570658    -0.25300
C1500       C  0.08190995  0.72390348  0.66701540     0.27400
H1501       H  0.08556928  0.78869086  0.67725654     0.13100
N1502       N  0.04383741  0.78541081  0.71659936    -0.82600
H1503       H  0.05178783  0.69974538  0.68711744     0.18000
N1504       N  0.09521289  0.70300088  0.65113125    -0.81200
H1505       H  0.05303540  0.80284216  0.71097614     0.33600
H1506       H  0.04684057  0.78217037  0.74171081     0.38100
H1507       H  0.08591145  0.68551144  0.65616529     0.33600
H1508       H  0.09379345  0.70597091  0.62575064     0.30300
H1509       H  0.09222396  0.79440167  0.58595260     0.33600
H1510       H  0.07716848  0.76794959  0.60010359     0.30300
H1511       H  0.19977078  0.74738318  0.64901904     0.38100
H1512       H  0.18322778  0.72110714  0.66049036     0.33600
C1513       C  0.24383679  0.56688340  0.71022439    -0.20100
C1514       C  0.26569287  0.57379322  0.69061075     0.36100
C1515       C  0.26553280  0.59673149  0.67195035    -0.26100
C1516       C  0.24356945  0.61297525  0.67104112     0.02500
C1517       C  0.22117589  0.60571594  0.68909473     0.27300
C1518       C  0.22156894  0.58305770  0.70848281    -0.25200
N1519       N  0.28812986  0.55728475  0.68910317    -0.82600
H1520       H  0.28258189  0.60159202  0.65741412     0.13100
C1521       C  0.24397615  0.63692895  0.65014217     0.02500
N1522       N  0.19795871  0.62135679  0.68756109    -0.81200
H1523       H  0.20390415  0.57809626  0.72136685     0.18000
C1524       C  0.22516130  0.64022561  0.62514105    -0.26000
C1525       C  0.22543640  0.66196795  0.60425198     0.36000
C1526       C  0.24526832  0.68073604  0.60781294    -0.20100
C1527       C  0.26360056  0.67797579  0.63343627    -0.25300
C1528       C  0.26309406  0.65633839  0.65468930     0.27400
H1529       H  0.21034641  0.62556478  0.62162474     0.13100
N1530       N  0.20559074  0.66512848  0.57934955    -0.82600
H1531       H  0.27874120  0.69240377  0.63635155     0.18000
N1532       N  0.28192860  0.65397271  0.68088371    -0.81200
H1533       H  0.19234977  0.64979214  0.57994407     0.33600
H1534       H  0.19489372  0.68168081  0.58502631     0.38100
H1535       H  0.29463714  0.66974599  0.68093994     0.33600
H1536       H  0.27167586  0.65454257  0.70306306     0.30300
H1537       H  0.18300362  0.61332496  0.70176298     0.33600
H1538       H  0.20246254  0.63917040  0.69798440     0.30300
H1539       H  0.30452877  0.56780445  0.69661843     0.38100
H1540       H  0.29085783  0.55193635  0.66461199     0.33600
C1541       C  0.24523491  0.96840317  0.70627228    -0.20100
C1542       C  0.26368034  0.94908574  0.71416029     0.36100
C1543       C  0.26461065  0.92636382  0.69548642    -0.26100
C1544       C  0.24742898  0.92258383  0.66894307     0.02500
C1545       C  0.22857052  0.94157759  0.66141121     0.27300
C1546       C  0.22769339  0.96428104  0.68010666    -0.25200
N1547       N  0.28223592  0.95289194  0.74017596    -0.82600
H1548       H  0.27921404  0.91187275  0.70124037     0.13100
C1549       C  0.25022240  0.89943065  0.64790919    -0.00700
N1550       N  0.21035415  0.93768269  0.63483863    -0.81200
H1551       H  0.21327063  0.97890076  0.67418204     0.18000
C1552       C  0.23599637  0.87705179  0.65520900    -0.26000
C1553       C  0.23668950  0.85550301  0.63420592     0.36000
C1554       C  0.25207370  0.85635988  0.60535884    -0.20100
C1555       C  0.26673908  0.87869418  0.59864706    -0.25300
C1556       C  0.26606035  0.90014264  0.61965135     0.27400
H1557       H  0.22381600  0.87666621  0.67695099     0.13100
N1558       N  0.22114564  0.83316134  0.64152166    -0.82600
H1559       H  0.27873526  0.87945019  0.57679549     0.18000
N1560       N  0.28148380  0.92262914  0.61251133    -0.81200
H1561       H  0.21109627  0.83557433  0.66363343     0.33600
H1562       H  0.20690278  0.83153029  0.62309814     0.38100
H1563       H  0.29238282  0.91994555  0.59109824     0.33600
H1564       H  0.26866564  0.93788226  0.60771143     0.30300
H1565       H  0.19745360  0.95325009  0.63288386     0.33600
H1566       H  0.22096570  0.93726551  0.61294169     0.30300
H1567       H  0.28002800  0.93792219  0.75719051     0.38100
H1568       H  0.30106076  0.95166100  0.73029652     0.33600
C1569       C  0.33734261  0.68231599  0.50586229    -0.20100
C1570       C  0.33331600  0.66082514  0.52669142     0.36100
C1571       C  0.35244704  0.64155495  0.52836920    -0.26100
C1572       C  0.37540314  0.64339791  0.50987100     0.02500
C1573       C  0.37990008  0.66517354  0.48993987     0.27300
C1574       C  0.36075506  0.68449671  0.48810730    -0.25200
N1575       N  0.31034310  0.65904462  0.54694153    -0.82600
H1576       H  0.34933276  0.62481923  0.54386120     0.13100
C1577       C  0.39446071  0.62214899  0.51138948     0.02500
N1578       N  0.40389425  0.66751219  0.47179152    -0.81200
H1579       H  0.36395431  0.70114665  0.47249389     0.18000
C1580       C  0.39989718  0.60839152  0.48266358    -0.26000
C1581       C  0.41820255  0.58832982  0.48298987     0.36000
C1582       C  0.43085290  0.58185764  0.51268065    -0.20100
C1583       C  0.42518160  0.59528435  0.54154319    -0.25300
C1584       C  0.40716221  0.61564602  0.54112491     0.27400
H1585       H  0.39000780  0.61353717  0.45993900     0.13100
N1586       N  0.42478241  0.57507521  0.45319994    -0.82600
H1587       H  0.43542896  0.59032251  0.56407966     0.18000
N1588       N  0.40215697  0.63017364  0.57042630    -0.81200
H1589       H  0.41413949  0.58256964  0.43333585     0.33600
H1590       H  0.41898639  0.55589656  0.45592607     0.38100
H1591       H  0.41317487  0.62294973  0.59013191     0.33600
H1592       H  0.40866842  0.64897924  0.56626458     0.30300
H1593       H  0.40414001  0.68469627  0.45833322     0.33600
H1594       H  0.41924621  0.66862727  0.48882256     0.30300
H1595       H  0.29459011  0.65421595  0.53169620     0.38100
H1596       H  0.31215964  0.64387380  0.56377060     0.33600
C1597       C  0.06765851  0.58578599  0.51378710    -0.20100
C1598       C  0.07886195  0.59630564  0.54236612     0.36100
C1599       C  0.09850788  0.61497632  0.53927236    -0.26100
C1600       C  0.10618184  0.62398110  0.50818918     0.02500
C1601       C  0.09425084  0.61400601  0.47962681     0.27300
C1602       C  0.07539303  0.59458117  0.48272912    -0.25200
N1603       N  0.07029362  0.58783987  0.57424003    -0.82600
H1604       H  0.10771075  0.62275883  0.56112285     0.13100
C1605       C  0.12633025  0.64429509  0.50599122     0.02500
N1606       N  0.10098698  0.62399538  0.44774921    -0.81200
H1607       H  0.06626408  0.58656934  0.46095991     0.18000
C1608       C  0.14920705  0.63969658  0.48800554    -0.26000
C1609       C  0.16862236  0.65865229  0.48514905     0.36000
C1610       C  0.16519499  0.68245983  0.50129252    -0.20100
C1611       C  0.14231762  0.68694532  0.51933268    -0.25300
C1612       C  0.12271763  0.66817866  0.52159377     0.27400
H1613       H  0.15181452  0.62128370  0.47604673     0.13100
N1614       N  0.19152215  0.65396321  0.46556016    -0.82600
H1615       H  0.13976378  0.70514218  0.53182784     0.18000
N1616       N  0.09901532  0.67333428  0.53935235    -0.81200
H1617       H  0.19096679  0.63549724  0.45547970     0.33600
H1618       H  0.19110809  0.66687380  0.44576903     0.38100
H1619       H  0.09952089  0.69175034  0.54957766     0.33600
H1620       H  0.08356208  0.67324603  0.52240201     0.30300
H1621       H  0.09034249  0.61459729  0.42936224     0.33600
H1622       H  0.09522953  0.64330200  0.44697410     0.30300
H1623       H  0.05063349  0.59311880  0.57666246     0.38100
H1624       H  0.08057573  0.59748042  0.59274038     0.33600
C1625       C  0.07091986  0.95374499  0.46794830    -0.20100
C1626       C  0.08921130  0.94872083  0.44268777     0.36100
C1627       C  0.10822087  0.92958112  0.44759827    -0.26100
C1628       C  0.10943963  0.91560306  0.47710607     0.02500
C1629       C  0.09156689  0.92086501  0.50243717     0.27300
C1630       C  0.07246827  0.93995271  0.49761958    -0.25200
N1631       N  0.08880142  0.96217612  0.41171894    -0.82600
H1632       H  0.12203758  0.92543819  0.42816886     0.13100
C1633       C  0.12906161  0.89493356  0.48102001     0.02500
N1634       N  0.09290887  0.90672553  0.53285683    -0.81200
H1635       H  0.05855540  0.94403321  0.51695770     0.18000
C1636       C  0.15228491  0.89994242  0.49820488    -0.26000
C1637       C  0.17096158  0.88050790  0.50323964     0.36000
C1638       C  0.16625510  0.85544495  0.49106804    -0.20100
C1639       C  0.14273715  0.85052716  0.47415637    -0.25300
C1640       C  0.12417190  0.87008676  0.46881733     0.27400
H1641       H  0.15588090  0.91903329  0.50784950     0.13100
N1642       N  0.19439667  0.88624746  0.52128208    -0.82600
H1643       H  0.13898717  0.83146984  0.46460832     0.18000
N1644       N  0.10044974  0.86493229  0.45086164    -0.81200
H1645       H  0.18905669  0.89278247  0.54458240     0.33600
H1646       H  0.20412128  0.90121523  0.50916360     0.38100
H1647       H  0.09997179  0.84577047  0.44316846     0.33600
H1648       H  0.08476367  0.86728606  0.46700398     0.30300
H1649       H  0.07852335  0.91313116  0.54910429     0.33600
H1650       H  0.08857604  0.88749588  0.52771862     0.30300
H1651       H  0.07358272  0.97554770  0.41041935     0.38100
H1652       H  0.10626027  0.97258593  0.40992122     0.33600
C1653       C  0.33918293  0.85267617  0.49404993    -0.20100
C1654       C  0.33330225  0.87936244  0.49497171     0.36100
C1655       C  0.35341878  0.89729999  0.49024708    -0.26100
C1656       C  0.37929324  0.88935874  0.48564706     0.02500
C1657       C  0.38553452  0.86301020  0.48595223     0.27300
C1658       C  0.36542140  0.84492189  0.48990906    -0.25200
N1659       N  0.30713311  0.88832090  0.50110925    -0.82600
H1660       H  0.34902905  0.91770231  0.49085143     0.13100
C1661       C  0.39977521  0.90907175  0.48193849     0.02500
N1662       N  0.41225130  0.85479339  0.48214379    -0.81200
H1663       H  0.37035923  0.82465962  0.48939897     0.18000
C1664       C  0.41950035  0.91064489  0.50585285    -0.26000
C1665       C  0.43842357  0.92996354  0.50456107     0.36000
C1666       C  0.43768478  0.94793863  0.47831416    -0.20100
C1667       C  0.41814011  0.94617431  0.45413924    -0.25300
C1668       C  0.39902705  0.92690054  0.45575115     0.27400
H1669       H  0.41973572  0.89714438  0.52624531     0.13100
N1670       N  0.45736546  0.93114746  0.53079497    -0.82600
H1671       H  0.41774098  0.96004971  0.43416500     0.18000
N1672       N  0.37878883  0.92540473  0.43114678    -0.81200
H1673       H  0.46933423  0.91488663  0.52902674     0.33600
H1674       H  0.46948746  0.94722280  0.52896792     0.38100
H1675       H  0.38094980  0.94011309  0.41374379     0.33600
H1676       H  0.38120160  0.90804231  0.41863900     0.30300
H1677       H  0.41359328  0.83473375  0.48325997     0.33600
H1678       H  0.41833695  0.86029108  0.45863447     0.30300
H1679       H  0.30251961  0.88324495  0.52528547     0.38100
H1680       H  0.30620054  0.90840448  0.49994696     0.33600
C1681       C  0.04936368  0.73789560  0.28789515    -0.20100
C1682       C  0.07466030  0.73775936  0.27379205     0.36100
C1683       C  0.09683878  0.74240893  0.29370454    -0.26100
C1684       C  0.09450704  0.74666157  0.32765382     0.02500
C1685       C  0.06921060  0.74647800  0.34176872     0.27300
C1686       C  0.04700087  0.74237311  0.32168884    -0.25200
N1687       N  0.07780175  0.73235105  0.23938458    -0.82600
H1688       H  0.11611091  0.74265822  0.28267511     0.13100
C1689       C  0.11858024  0.75149006  0.34807570     0.02500
N1690       N  0.06621476  0.74971335  0.37662955    -0.81200
H1691       H  0.02790913  0.74131262  0.33280371     0.18000
C1692       C  0.11988100  0.77368029  0.36761272    -0.26000
C1693       C  0.14160519  0.77861525  0.38810802     0.36000
C1694       C  0.16288738  0.76128047  0.38884290    -0.20100
C1695       C  0.16216409  0.73953720  0.36844137    -0.25300
C1696       C  0.14007508  0.73423308  0.34847797     0.27400
H1697       H  0.10371648  0.78718831  0.36702440     0.13100
N1698       N  0.14211146  0.80117229  0.40839820    -0.82600
H1699       H  0.17831045  0.72600000  0.36933173     0.18000
N1700       N  0.13902527  0.71097339  0.32952080    -0.81200
H1701       H  0.12492443  0.81186980  0.40529739     0.33600
H1702       H  0.15750112  0.81281512  0.40028168     0.38100
H1703       H  0.15626909  0.70034526  0.33256504     0.33600
H1704       H  0.12384518  0.69966613  0.33893416     0.30300
H1705       H  0.04643042  0.74911175  0.38312725     0.33600
H1706       H  0.07522113  0.73402134  0.38822565     0.30300
H1707       H  0.06867040  0.74702068  0.22596675     0.38100
H1708       H  0.09759541  0.73268802  0.23292620     0.33600
C1709       C  0.45411644  0.74006932  0.29077311    -0.20100
C1710       C  0.45640997  0.75378627  0.32048370     0.36100
C1711       C  0.43397502  0.75922173  0.33920012    -0.26100
C1712       C  0.40906805  0.75045808  0.32961408     0.02500
C1713       C  0.40651050  0.73698574  0.29976771     0.27300
C1714       C  0.42883548  0.73251906  0.28040347    -0.25200
N1715       N  0.48151430  0.76124594  0.33275576    -0.82600
H1716       H  0.43617241  0.76970523  0.36201235     0.13100
C1717       C  0.38619087  0.75423322  0.35189605     0.02500
N1718       N  0.38139645  0.72719621  0.28969136    -0.81200
H1719       H  0.42642928  0.72257021  0.25726383     0.18000
C1720       C  0.36322905  0.76611745  0.34010777    -0.26000
C1721       C  0.34118501  0.76949119  0.36047209     0.36000
C1722       C  0.34212298  0.76099317  0.39352414    -0.20100
C1723       C  0.36525813  0.74922325  0.40517434    -0.25300
C1724       C  0.38703910  0.74549321  0.38475803     0.27400
H1725       H  0.36260487  0.77300654  0.31494130     0.13100
N1726       N  0.31818982  0.78205536  0.34787767    -0.82600
H1727       H  0.36623739  0.74230546  0.43031285     0.18000
N1728       N  0.40986621  0.73235813  0.39713152    -0.81200
H1729       H  0.32057578  0.78694603  0.32311307     0.33600
H1730       H  0.31641856  0.79932836  0.36062406     0.38100
H1731       H  0.40747676  0.72733459  0.42185212     0.33600
H1732       H  0.41167589  0.71513415  0.38415209     0.30300
H1733       H  0.38283958  0.71762360  0.26722426     0.33600
H1734       H  0.37563511  0.71343087  0.30703885     0.30300
H1735       H  0.48407159  0.75278188  0.35592283     0.38100
H1736       H  0.48152205  0.78121245  0.33574610     0.33600
C1737       C  0.24596728  0.85509593  0.38915050    -0.20100
C1738       C  0.26330786  0.85721650  0.36233105     0.36100
C1739       C  0.26280915  0.87947872  0.34225366    -0.26100
C1740       C  0.24526709  0.89972244  0.34835210     0.02500
C1741       C  0.22729700  0.89725107  0.37443498     0.27300
C1742       C  0.22788037  0.87506630  0.39457001    -0.25200
N1743       N  0.28223113  0.83735496  0.35657023    -0.82600
H1744       H  0.27660981  0.88137317  0.32223018     0.13100
C1745       C  0.24675879  0.92396558  0.32845222     0.02500
N1746       N  0.20895114  0.91758803  0.38085874    -0.81200
H1747       H  0.21448370  0.87356872  0.41508889     0.18000
C1748       C  0.22616554  0.93063257  0.30702305    -0.26000
C1749       C  0.22662898  0.95384911  0.28896759     0.36000
C1750       C  0.24796778  0.97084581  0.29222809    -0.20100
C1751       C  0.26852286  0.96426344  0.31374205    -0.25300
C1752       C  0.26814722  0.94102207  0.33186222     0.27400
H1753       H  0.20950982  0.91785968  0.30456449     0.13100
N1754       N  0.20492817  0.96056647  0.26823213    -0.82600
H1755       H  0.28486850  0.97738380  0.31648680     0.18000
N1756       N  0.28919271  0.93483651  0.35412002    -0.81200
H1757       H  0.18805917  0.96100216  0.28270023     0.33600
H1758       H  0.20262337  0.94606991  0.25073017     0.38100
H1759       H  0.30343894  0.94928261  0.35374450     0.33600
H1760       H  0.28150710  0.93453276  0.37790178     0.30300
H1761       H  0.19694574  0.91277006  0.40071282     0.33600
H1762       H  0.21966940  0.93380277  0.38791852     0.30300
H1763       H  0.29506448  0.83725760  0.37666907     0.38100
H1764       H  0.29349113  0.84170337  0.33587093     0.33600
C1765       C  0.25237191  0.67914508  0.39220198    -0.20100
C1766       C  0.26568774  0.65591363  0.39976213     0.36100
C1767       C  0.26362430  0.63476749  0.37839579    -0.26100
C1768       C  0.24889232  0.63623878  0.34932609     0.02500
C1769       C  0.23617916  0.65955398  0.34111907     0.27300
C1770       C  0.23805891  0.68079710  0.36261626    -0.25200
N1771       N  0.28153531  0.65393706  0.42899243    -0.82600
H1772       H  0.27375431  0.61699924  0.38429854     0.13100
C1773       C  0.24815395  0.61338783  0.32723606     0.02500
N1774       N  0.22107940  0.66140808  0.31130623    -0.81200
H1775       H  0.22778794  0.69847370  0.35665334     0.18000
C1776       C  0.22851215  0.59477558  0.33085109    -0.26000
C1777       C  0.22864327  0.57199941  0.31208272     0.36000
C1778       C  0.24870030  0.56740718  0.28871321    -0.20100
C1779       C  0.26816292  0.58662177  0.28512410    -0.25300
C1780       C  0.26818037  0.60921695  0.30424614     0.27400
H1781       H  0.21323172  0.59768531  0.34886820     0.13100
N1782       N  0.20848456  0.55327583  0.31731568    -0.82600
H1783       H  0.28389051  0.58443731  0.26791717     0.18000
N1784       N  0.28899290  0.62770256  0.30111723    -0.81200
H1785       H  0.19039825  0.56208628  0.31284813     0.33600
H1786       H  0.20909187  0.54763820  0.34201519     0.38100
H1787       H  0.30263518  0.62172754  0.28364923     0.33600
H1788       H  0.28085648  0.64484569  0.29224059     0.30300
H1789       H  0.21270151  0.67969792  0.30903996     0.33600
H1790       H  0.23394517  0.65939273  0.29157032     0.30300
H1791       H  0.28983649  0.63560551  0.43108657     0.38100
H1792       H  0.29708819  0.66688490  0.42655087     0.33600
O1793       O  0.75183018  0.22408542  0.40648704    -0.86800
O1794       O  0.74881381  0.22470230  0.59511405    -0.86900
O1795       O  0.79386217  0.19491785  0.50221097    -0.88600
O1796       O  0.70911981  0.19427436  0.50008151    -0.87300
O1797       O  0.67735801  0.22536736  0.49960940    -0.86900
O1798       O  0.82560834  0.22609862  0.50204220    -0.88300
O1799       O  0.74857106  0.19433029  0.55417677    -0.86800
O1800       O  0.75332817  0.19394692  0.44793957    -0.86400
Zr1801     Zr  0.75121875  0.21580177  0.50107804     2.84300
O1802       O  0.72443824  0.24158774  0.53392768    -1.08300
O1803       O  0.77756548  0.24156688  0.46790834    -1.09100
C1804       C  0.75307102  0.20058335  0.41723966     1.06400
C1805       C  0.74784940  0.20118253  0.58462520     1.06300
C1806       C  0.81793771  0.20244517  0.50211596     1.09300
C1807       C  0.68502573  0.20168437  0.49940801     1.07100
H1808       H  0.78780452  0.23068813  0.54927677     0.32600
O1809       O  0.77697180  0.24154583  0.53548519    -1.29300
H1810       H  0.71410778  0.23020173  0.45323643     0.32300
O1811       O  0.72489860  0.24120969  0.46671000    -1.31000
O1812       O  0.74978632  0.31075858  0.59392724    -0.86700
O1813       O  0.75132448  0.30916611  0.40522573    -0.88200
O1814       O  0.82460205  0.26805017  0.55580666    -0.86800
O1815       O  0.67553093  0.26654863  0.55219915    -0.86900
O1816       O  0.67634490  0.26745398  0.44657412    -0.86600
O1817       O  0.82550479  0.26454875  0.44909874    -0.86400
O1818       O  0.79275903  0.33983444  0.50132781    -0.86800
O1819       O  0.70917624  0.34013897  0.50000800    -0.86200
O1820       O  0.82483937  0.30923666  0.50234866    -0.87300
O1821       O  0.67708913  0.30934755  0.49969362    -0.86400
O1822       O  0.79316087  0.26653883  0.59609113    -0.86800
O1823       O  0.79517893  0.26360708  0.40737892    -0.86600
O1824       O  0.70780184  0.26500345  0.40637319    -0.86200
O1825       O  0.70604083  0.26601363  0.59382363    -0.86600
O1826       O  0.75123035  0.34060021  0.55212087    -0.86900
O1827       O  0.74942882  0.33954545  0.44600960    -0.88300
Zr1828     Zr  0.75002855  0.26746852  0.56861805     2.83100
Zr1829     Zr  0.75146213  0.26674334  0.43268165     2.83500
Zr1830     Zr  0.80337054  0.26744773  0.50191497     2.84100
Zr1831     Zr  0.69838481  0.26733264  0.49969699     2.83400
Zr1832     Zr  0.75085421  0.31832355  0.49964864     2.84200
O1833       O  0.72470738  0.29279070  0.46568409    -1.08800
O1834       O  0.77667228  0.29313645  0.53473580    -1.08300
C1835       C  0.75060842  0.33424444  0.58284669     1.06300
C1836       C  0.74997939  0.33273143  0.41548753     1.08900
C1837       C  0.81727384  0.26719253  0.58617858     1.06500
C1838       C  0.68209793  0.26576079  0.58290721     1.06900
C1839       C  0.68369438  0.26578482  0.41633095     1.06400
C1840       C  0.81906122  0.26285186  0.41840308     1.06000
C1841       C  0.81692915  0.33284762  0.50233577     1.06400
C1842       C  0.68507492  0.33293125  0.50031105     1.05900
H1843       H  0.78891860  0.30370227  0.45308876     0.32600
O1844       O  0.77778602  0.29295756  0.46653391    -1.29900
H1845       H  0.71307680  0.30409996  0.54689731     0.32600
O1846       O  0.72414945  0.29322795  0.53372355    -1.31300
N1847       N  0.96000725  0.01658808  0.46335199    -0.36900
N1848       N  0.49864994  0.05731187  0.47652149    -0.57400
N1849       N  0.54113523  0.02010766  0.47356339    -0.36900
N1850       N  0.50162775  0.47773662  0.50718658    -0.57400
C1851       C  0.94483282  0.03618450  0.47402703     0.26700
C1852       C  0.94679431  0.49594760  0.51848764     0.26700
C1853       C  0.55453309  0.04172148  0.48092132     0.26700
C1854       C  0.55611849  0.49768284  0.50617753     0.26700
C1855       C  0.97660634  0.07178129  0.46658155     0.35300
C1856       C  0.51881492  0.07355764  0.47139377     0.35300
C1857       C  0.98108131  0.46357067  0.50606433     0.35300
C1858       C  0.52270525  0.46313878  0.50031850     0.35300
C1859       C  0.92162576  0.02657667  0.48660139    -0.22200
C1860       C  0.92229239  0.50269623  0.53027300    -0.22200
C1861       C  0.57932530  0.03525982  0.49240880    -0.22200
C1862       C  0.58123812  0.50587498  0.51385480    -0.22200
C1863       C  0.98313770  0.09745727  0.46223920    -0.23200
C1864       C  0.50959309  0.09825570  0.46551947    -0.23200
C1865       C  0.98935094  0.43938994  0.49628323    -0.23200
C1866       C  0.51520547  0.43795060  0.49430343    -0.23200
C1867       C  0.95102051  0.06257311  0.47176833    -0.18600
C1868       C  0.95485132  0.47061120  0.51156693    -0.18600
C1869       C  0.54879009  0.47173166  0.50207117    -0.18600
C1870       C  0.54534326  0.06710361  0.47623654    -0.18600
H1871       H  0.90550882  0.03738149  0.49686611     0.14300
H1872       H  0.90640539  0.48991483  0.53686667     0.14300
H1873       H  0.59480754  0.04822163  0.49989169     0.14300
H1874       H  0.59836210  0.49406778  0.51834179     0.14300
H1875       H  0.96996711  0.11371515  0.46010891     0.12600
H1876       H  0.52100058  0.11554401  0.46162168     0.12600
H1877       H  0.97730475  0.42299600  0.48994732     0.12600
H1878       H  0.52769092  0.42169124  0.48886157     0.12600
H1879       H  0.97718090  0.01826716  0.44986395     0.25900
H1880       H  0.52340637  0.01935645  0.46098212     0.25900
O1881       O  0.99627248  0.43687570  0.90346872    -0.86800
O1882       O  0.99745748  0.43604421  0.09314624    -0.86900
O1883       O  0.53854394  0.40694819  0.99987955    -0.88600
O1884       O  0.95452966  0.40635046  0.99902529    -0.87300
O1885       O  0.92265714  0.43727135  0.99831980    -0.86900
O1886       O  0.57041956  0.43784767  0.99980869    -0.88300
O1887       O  0.99740721  0.40644539  0.05142905    -0.86800
O1888       O  0.99677420  0.40672258  0.94484848    -0.86400
Zr1889     Zr  0.99683560  0.42808966  0.99809690     2.84300
O1890       O  0.97068489  0.45322567  0.03238493    -1.08300
O1891       O  0.52331568  0.45404945  0.96739011    -1.09100
C1892       C  0.99626406  0.41323295  0.91414164     1.06400
C1893       C  0.99788261  0.41263904  0.08217522     1.06300
C1894       C  0.56267882  0.41417955  0.99931888     1.09300
C1895       C  0.93030514  0.41358155  0.99902089     1.07100
H1896       H  0.53447495  0.44301601  0.04837130     0.32600
O1897       O  0.52330680  0.45393408  0.03506311    -1.29300
H1898       H  0.95906838  0.44289843  0.95054344     0.32300
O1899       O  0.97024220  0.45358551  0.96397677    -1.31000
O1900       O  0.99832043  0.02161972  0.09273277    -0.86700
O1901       O  0.99531872  0.02227412  0.90402980    -0.88200
O1902       O  0.57197598  0.47969212  0.05376466    -0.86800
O1903       O  0.92280690  0.47998365  0.05128751    -0.86900
O1904       O  0.92181364  0.48278746  0.94580328    -0.86600
O1905       O  0.57231152  0.48093518  0.94932955    -0.86400
O1906       O  0.53497779  0.05339126  0.99993254    -0.86800
O1907       O  0.95345632  0.05098892  0.99827709    -0.86200
O1908       O  0.56774708  0.02323137  0.99973102    -0.87300
O1909       O  0.92209022  0.01961038  0.99768700    -0.86400
O1910       O  0.54166680  0.48048898  0.09507429    -0.86800
O1911       O  0.53844340  0.98059696  0.90289898    -0.86600
O1912       O  0.95207953  0.98231509  0.90399136    -0.86200
O1913       O  0.95317855  0.48002276  0.09289068    -0.86600
O1914       O  0.99763937  0.05154365  0.05128762    -0.86900
O1915       O  0.99464874  0.05165619  0.94581647    -0.88300
Zr1916     Zr  0.99710493  0.47889129  0.06682916     2.83100
Zr1917     Zr  0.99645845  0.47983521  0.92999911     2.83500
Zr1918     Zr  0.54930431  0.47988099  0.00127423     2.84100
Zr1919     Zr  0.94443633  0.47903987  0.99836712     2.83400
Zr1920     Zr  0.99607009  0.02979167  0.99852361     2.84200
O1921       O  0.96997507  0.00445094  0.96463789    -1.08800
O1922       O  0.52179973  0.00570731  0.03157400    -1.08300
C1923       C  0.99856868  0.04524654  0.08202935     1.06300
C1924       C  0.99473162  0.04569072  0.91505471     1.08900
C1925       C  0.56569053  0.48052033  0.08444056     1.06500
C1926       C  0.92917774  0.48064096  0.08201621     1.06900
C1927       C  0.92834467  0.98435735  0.91495964     1.06400
C1928       C  0.56256372  0.98047267  0.91337356     1.06000
C1929       C  0.55917617  0.04661001  0.00101420     1.06400
C1930       C  0.92940829  0.04325813  0.99789640     1.05900
H1931       H  0.53169038  0.01755314  0.95046471     0.32600
O1932       O  0.52104523  0.00624863  0.96387445    -1.29900
H1933       H  0.95930178  0.01528913  0.04601980     0.32600
O1934       O  0.97015275  0.00430419  0.03266639    -1.31300
N1935       N  0.78546026  0.22619999  0.00946019    -0.36900
N1936       N  0.74401419  0.18813340  0.01383158    -0.57400
N1937       N  0.70540934  0.22899046  0.01825760    -0.36900
N1938       N  0.74697064  0.26687632  0.01084215    -0.57400
C1939       C  0.79872362  0.20469455  0.00121876     0.26700
C1940       C  0.80049567  0.24655352  0.00087556     0.26700
C1941       C  0.68962278  0.20847971  0.01349352     0.26700
C1942       C  0.69115153  0.25023056  0.01115328     0.26700
C1943       C  0.76487100  0.17228665  0.01628854     0.35300
C1944       C  0.72278241  0.17384921  0.02127766     0.35300
C1945       C  0.76886415  0.28118250  0.01446061     0.35300
C1946       C  0.72661631  0.28264590  0.01718077     0.35300
C1947       C  0.82259791  0.21143224  0.98748959    -0.22200
C1948       C  0.82377568  0.23786397  0.98743833    -0.22200
C1949       C  0.66483733  0.21679937  0.00420128    -0.22200
C1950       C  0.66583393  0.24316195  0.00259948    -0.22200
C1951       C  0.75688452  0.14777263  0.02535104    -0.23200
C1952       C  0.73013416  0.14875686  0.02846350    -0.23200
C1953       C  0.76233630  0.30617532  0.02298105    -0.23200
C1954       C  0.73554218  0.30708228  0.02472405    -0.23200
C1955       C  0.79069172  0.17919065  0.00786136    -0.18600
C1956       C  0.79439196  0.27261117  0.00702735    -0.18600
C1957       C  0.70004717  0.27587087  0.01349180    -0.18600
C1958       C  0.69672646  0.18247402  0.01808875    -0.18600
H1959       H  0.83780281  0.19862679  0.97889427     0.14300
H1960       H  0.84008734  0.24929770  0.97883319     0.14300
H1961       H  0.64780224  0.20510587  0.99892601     0.14300
H1962       H  0.64970944  0.25567335  0.99587509     0.14300
H1963       H  0.76898866  0.13084305  0.02864286     0.12600
H1964       H  0.71747365  0.13272626  0.03448941     0.12600
H1965       H  0.77540882  0.32227254  0.02680006     0.12600
H1966       H  0.72392126  0.32390660  0.03034940     0.12600
H1967       H  0.76870132  0.22689320  0.02379440     0.25900
H1968       H  0.72401170  0.22861761  0.02866292     0.25900
C1969       C  0.00075497  0.20513963  0.23042994     0.86200
C1970       C  0.52545175  0.20853012  0.25267644    -0.54000
C1971       C  0.52671580  0.23125614  0.26935365     0.09100
C1972       C  0.00107542  0.24881929  0.26276880     0.20100
C1973       C  0.97787008  0.20845709  0.25473591    -0.54700
C1974       C  0.97735591  0.23134554  0.27123232     0.09300
C1975       C  0.99894708  0.22937114  0.20848433    -0.54300
C1976       C  0.99936843  0.25231281  0.22504263     0.09800
H1977       H  0.54091156  0.19420253  0.25411391     0.14300
H1978       H  0.00121514  0.26729983  0.27618906     0.00100
H1979       H  0.96250560  0.19454462  0.25846609     0.14600
H1980       H  0.99777388  0.22834683  0.18186565     0.14400
C1981       C  0.75053019  0.04257756  0.26799784     0.86200
C1982       C  0.77354214  0.03740611  0.24433368    -0.54000
C1983       C  0.77292040  0.51418065  0.23025265     0.09100
C1984       C  0.74896548  0.49747851  0.23927737     0.20100
C1985       C  0.72616568  0.03965429  0.24576432    -0.54700
C1986       C  0.72470110  0.51468113  0.23212592     0.09300
C1987       C  0.75109374  0.51797231  0.29286677    -0.54300
C1988       C  0.74994307  0.49485469  0.27697139     0.09800
H1989       H  0.78978613  0.05027679  0.24000828     0.14300
H1990       H  0.74904546  0.47847321  0.22719315     0.00100
H1991       H  0.71176832  0.05489053  0.24298914     0.14600
H1992       H  0.75192311  0.51935220  0.31948097     0.14400
C1993       C  0.00190588  0.20618682  0.76837806     0.86200
C1994       C  0.97721659  0.20939019  0.74696435    -0.54000
C1995       C  0.97604537  0.23189830  0.72958550     0.09100
C1996       C  0.00012526  0.24935173  0.73465854     0.20100
C1997       C  0.52439486  0.21078133  0.74634084    -0.54700
C1998       C  0.52408353  0.23338519  0.72877281     0.09300
C1999       C  0.00293324  0.23072509  0.78955127    -0.54300
C2000       C  0.00162559  0.25336769  0.77220677     0.09800
H2001       H  0.96155265  0.19525554  0.74630551     0.14300
H2002       H  0.99917943  0.26745283  0.72014748     0.00100
H2003       H  0.54050160  0.19742953  0.74403188     0.14600
H2004       H  0.00419098  0.23015245  0.81619749     0.14400
C2005       C  0.74439073  0.04138109  0.73117374     0.86200
C2006       C  0.72155427  0.03679846  0.75538676    -0.54000
C2007       C  0.72281414  0.51417496  0.76860886     0.09100
C2008       C  0.74684278  0.49753419  0.75920090     0.20100
C2009       C  0.76903220  0.03731226  0.75253063    -0.54700
C2010       C  0.77115548  0.51459819  0.76571629     0.09300
C2011       C  0.74434167  0.51883868  0.70576054    -0.54300
C2012       C  0.74549574  0.49550209  0.72139509     0.09800
H2013       H  0.70557794  0.04996841  0.75969273     0.14300
H2014       H  0.74759903  0.47857875  0.77187298     0.00100
H2015       H  0.78446125  0.05160845  0.75450645     0.14600
H2016       H  0.74359154  0.52062072  0.67915834     0.14400
C2017       C  0.58841538  0.48250678  0.10822535    -0.20100
C2018       C  0.58639953  0.47827405  0.14257896     0.36100
C2019       C  0.60878956  0.48135065  0.16294308    -0.26100
C2020       C  0.63307574  0.48944812  0.15018880     0.02500
C2021       C  0.63505528  0.99726022  0.11057015     0.27300
C2022       C  0.61321372  0.99169161  0.09057146    -0.25200
N2023       N  0.56192553  0.47049335  0.15679874    -0.82600
H2024       H  0.60717279  0.47779051  0.18910850     0.13100
C2025       C  0.65601516  0.49454177  0.17267576     0.02500
N2026       N  0.65875962  0.00680408  0.09593081    -0.81200
H2027       H  0.61545962  0.99340906  0.06422727     0.18000
C2028       C  0.68136303  0.98963963  0.15961866    -0.26000
C2029       C  0.70361335  0.99516182  0.17901742     0.36000
C2030       C  0.70125722  0.50692467  0.21146561    -0.20100
C2031       C  0.67624835  0.51677810  0.21914626    -0.25300
C2032       C  0.65390640  0.51123841  0.19984617     0.27400
H2033       H  0.68373314  0.97762948  0.13814563     0.13100
N2034       N  0.72875533  0.98629628  0.16850447    -0.82600
H2035       H  0.67395262  0.52909404  0.24030489     0.18000
N2036       N  0.62918300  0.52303216  0.20738222    -0.81200
H2037       H  0.73233307  0.99380799  0.14506757     0.33600
H2038       H  0.72802987  0.96624572  0.16669403     0.38100
H2039       H  0.63083917  0.53475897  0.22809856     0.33600
H2040       H  0.62419519  0.53511956  0.18771125     0.30300
H2041       H  0.65701008  0.00770905  0.07033691     0.33600
H2042       H  0.66141353  0.02570103  0.10401687     0.30300
H2043       H  0.54930874  0.48631463  0.15564631     0.38100
H2044       H  0.56432479  0.46626753  0.18178217     0.33600
C2045       C  0.90654386  0.48285267  0.10554296    -0.20100
C2046       C  0.90945707  0.48796011  0.13960273     0.36100
C2047       C  0.88691982  0.49063493  0.15951961    -0.26100
C2048       C  0.86150829  0.48945722  0.14610821     0.02500
C2049       C  0.85855642  0.48471783  0.11225549     0.27300
C2050       C  0.88084646  0.48110087  0.09264554    -0.25200
N2051       N  0.93493703  0.98870652  0.15449436    -0.82600
H2052       H  0.88890842  0.99336653  0.18569512     0.13100
C2053       C  0.83813693  0.49472378  0.16718211     0.02500
N2054       N  0.83282859  0.48388581  0.09776775    -0.81200
H2055       H  0.87788098  0.47728560  0.06675278     0.18000
C2056       C  0.82336636  0.01658797  0.16016869    -0.26000
C2057       C  0.80114539  0.02285881  0.17890339     0.36000
C2058       C  0.79409651  0.50657018  0.20690631    -0.20100
C2059       C  0.80901144  0.48431096  0.21294865    -0.25300
C2060       C  0.83101294  0.47826542  0.19340211     0.27400
H2061       H  0.82954952  0.02934801  0.14053793     0.13100
N2062       N  0.78661616  0.04595390  0.17185357    -0.82600
H2063       H  0.80390769  0.47202014  0.23353158     0.18000
N2064       N  0.84622051  0.45556148  0.20012140    -0.81200
H2065       H  0.79495793  0.05595021  0.15214910     0.33600
H2066       H  0.76782620  0.04047033  0.16433462     0.38100
H2067       H  0.83858042  0.44559953  0.22030093     0.33600
H2068       H  0.84434475  0.44338444  0.17985866     0.30300
H2069       H  0.83395073  0.48076195  0.07243744     0.33600
H2070       H  0.82303169  0.46805711  0.10780617     0.30300
H2071       H  0.94347658  0.00556715  0.14540204     0.38100
H2072       H  0.93352028  0.99105832  0.17993711     0.33600
C2073       C  0.99779456  0.27783093  0.20760084    -0.20100
C2074       C  0.51577246  0.29877173  0.21821122     0.36100
C2075       C  0.51485399  0.32194578  0.19996338    -0.26100
C2076       C  0.99564967  0.32446811  0.17086259     0.02500
C2077       C  0.97975262  0.30346179  0.16188574     0.27300
C2078       C  0.98089482  0.28048631  0.18034333    -0.25200
N2079       N  0.53394572  0.29616615  0.24506926    -0.82600
H2080       H  0.52783529  0.33765820  0.20633100     0.13100
C2081       C  0.99709266  0.34787964  0.14962913     0.02500
N2082       N  0.96276979  0.30548098  0.13371074    -0.81200
H2083       H  0.96854534  0.26448084  0.17327282     0.18000
C2084       C  0.51346253  0.34763084  0.12254641    -0.26000
C2085       C  0.51437303  0.36903218  0.10126098     0.36000
C2086       C  0.99908926  0.39082119  0.10624871    -0.20100
C2087       C  0.98706255  0.39285591  0.13722971    -0.25300
C2088       C  0.98593510  0.37157337  0.15898537     0.27400
H2089       H  0.52366295  0.33009420  0.11605316     0.13100
N2090       N  0.52953773  0.36779175  0.07157146    -0.82600
H2091       H  0.97783951  0.41081689  0.14407379     0.18000
N2092       N  0.97318302  0.37377195  0.19026588    -0.81200
H2093       H  0.53853454  0.34981580  0.06929227     0.33600
H2094       H  0.54460987  0.38133164  0.07349415     0.38100
H2095       H  0.96610059  0.39245769  0.19356707     0.33600
H2096       H  0.95686205  0.36162694  0.18994822     0.30300
H2097       H  0.95247702  0.28831826  0.13017773     0.33600
H2098       H  0.94882041  0.31964976  0.13872618     0.30300
H2099       H  0.54785612  0.28247816  0.23831745     0.38100
H2100       H  0.54414347  0.31334840  0.24884815     0.33600
C2101       C  0.00176123  0.17982465  0.21026634    -0.20100
C2102       C  0.52236101  0.17464410  0.18936797     0.36100
C2103       C  0.52224552  0.15237309  0.16970880    -0.26100
C2104       C  0.00269227  0.13437636  0.17043884     0.02500
C2105       C  0.98330528  0.13756108  0.19466804     0.27300
C2106       C  0.98325084  0.15980233  0.21442871    -0.25200
N2107       N  0.54420628  0.19186507  0.18738822    -0.82600
H2108       H  0.53868030  0.14869323  0.15362126     0.13100
C2109       C  0.00252519  0.11144926  0.14798613     0.02500
N2110       N  0.96324387  0.11838862  0.19868717    -0.81200
H2111       H  0.96822430  0.16095693  0.23272581     0.18000
C2112       C  0.50097341  0.08729628  0.16056078    -0.26000
C2113       C  0.50019585  0.06549262  0.13988458     0.36000
C2114       C  0.00011453  0.06741652  0.10592891    -0.20100
C2115       C  0.00097846  0.09276108  0.09314206    -0.25300
C2116       C  0.00195622  0.11456417  0.11354609     0.27400
H2117       H  0.50192812  0.08471122  0.18697997     0.13100
N2118       N  0.50102183  0.04014770  0.15412334    -0.82600
H2119       H  0.00057265  0.09584425  0.06680965     0.18000
N2120       N  0.00186311  0.13995086  0.09930038    -0.81200
H2121       H  0.50083755  0.04113269  0.17978341     0.33600
H2122       H  0.51902784  0.03198646  0.14783774     0.38100
H2123       H  0.00156791  0.13901891  0.07363298     0.33600
H2124       H  0.98446265  0.14897886  0.10628539     0.30300
H2125       H  0.95049389  0.12332782  0.21768223     0.33600
H2126       H  0.95205942  0.11813418  0.17710008     0.30300
H2127       H  0.54599401  0.19802068  0.16300079     0.38100
H2128       H  0.56113939  0.18160349  0.19366762     0.33600
C2129       C  0.58314141  0.39385687  0.99884611    -0.20100
C2130       C  0.57741355  0.36800626  0.99029514     0.36100
C2131       C  0.59719184  0.34932466  0.99274862    -0.26100
C2132       C  0.62253436  0.35597038  0.00268096     0.02500
C2133       C  0.62862901  0.38165063  0.01011709     0.27300
C2134       C  0.60889722  0.40036364  0.00810594    -0.25200
N2135       N  0.55174359  0.36074853  0.97895079    -0.82600
H2136       H  0.59291825  0.32945493  0.98677566     0.13100
C2137       C  0.64244444  0.33563659  0.00583406     0.02500
N2138       N  0.65477238  0.38850907  0.02000300    -0.81200
H2139       H  0.61361462  0.42002417  0.01457355     0.18000
C2140       C  0.66072528  0.33234108  0.98064672    -0.26000
C2141       C  0.67961095  0.31285956  0.98277823     0.36000
C2142       C  0.68046039  0.29682043  0.01073923    -0.20100
C2143       C  0.66218782  0.30017723  0.03596813    -0.25300
C2144       C  0.64302165  0.31945830  0.03369881     0.27400
H2145       H  0.66008509  0.34471257  0.95913546     0.13100
N2146       N  0.69763411  0.30904781  0.95635805    -0.82600
H2147       H  0.66286575  0.28762167  0.05729533     0.18000
N2148       N  0.62400900  0.32260990  0.05932680    -0.81200
H2149       H  0.70808079  0.32613695  0.95289545     0.33600
H2150       H  0.68680783  0.30549676  0.93498044     0.38100
H2151       H  0.62695529  0.30894453  0.07792213     0.33600
H2152       H  0.62711972  0.34063313  0.06996227     0.30300
H2153       H  0.65609365  0.40828537  0.02432129     0.33600
H2154       H  0.65864809  0.37934886  0.04243789     0.30300
H2155       H  0.54856403  0.36989936  0.95633279     0.38100
H2156       H  0.55082271  0.34097315  0.97445931     0.33600
C2157       C  0.90994603  0.39298163  0.99969331    -0.20100
C2158       C  0.88383529  0.39768615  0.00989312     0.36100
C2159       C  0.86573280  0.37728022  0.01049685    -0.26100
C2160       C  0.87295682  0.35243173  0.00090393     0.02500
C2161       C  0.89864771  0.34770571  0.99019553     0.27300
C2162       C  0.91692171  0.36789713  0.99006762    -0.25200
N2163       N  0.87576447  0.42294048  0.02003650    -0.82600
H2164       H  0.84584587  0.38069773  0.01861099     0.13100
C2165       C  0.85345328  0.33141215  0.00264650     0.02500
N2166       N  0.90605129  0.32238903  0.97955361    -0.81200
H2167       H  0.93675396  0.36392412  0.98235564     0.18000
C2168       C  0.84326416  0.32111739  0.97346308    -0.26000
C2169       C  0.82407772  0.30173749  0.97429437     0.36000
C2170       C  0.81555891  0.29213442  0.00489790    -0.20100
C2171       C  0.82613407  0.30207701  0.03404714    -0.25300
C2172       C  0.84490712  0.32180396  0.03323443     0.27400
H2173       H  0.84994909  0.32861496  0.95006077     0.13100
N2174       N  0.81313405  0.29178954  0.94432335    -0.82600
H2175       H  0.81931799  0.29468919  0.05745022     0.18000
N2176       N  0.85523845  0.33225841  0.06326056    -0.81200
H2177       H  0.82167712  0.30073199  0.92394629     0.33600
H2178       H  0.79325834  0.29663275  0.94381301     0.38100
H2179       H  0.84670222  0.32326915  0.08361279     0.33600
H2180       H  0.87522565  0.32791690  0.06417587     0.30300
H2181       H  0.92558576  0.32217012  0.97194641     0.33600
H2182       H  0.90481309  0.31004936  0.99985514     0.30300
H2183       H  0.88578331  0.42723536  0.04179875     0.38100
H2184       H  0.85581445  0.42317457  0.02573620     0.33600
C2185       C  0.90853727  0.06292261  0.99747742    -0.20100
C2186       C  0.88314124  0.05760542  0.00974770     0.36100
C2187       C  0.86400674  0.07688769  0.00857106    -0.26100
C2188       C  0.86971334  0.10119071  0.99569816     0.02500
C2189       C  0.89470403  0.10652726  0.98300467     0.27300
C2190       C  0.91396931  0.08731559  0.98411346    -0.25200
N2191       N  0.87695069  0.03295388  0.02398108    -0.82600
H2192       H  0.84467262  0.07320523  0.01844401     0.13100
C2193       C  0.84966278  0.12132640  0.99790879     0.02500
N2194       N  0.90047648  0.13152446  0.96960607    -0.81200
H2195       H  0.93323319  0.09136615  0.97428559     0.18000
C2196       C  0.84887042  0.13641319  0.02630224    -0.26000
C2197       C  0.82933630  0.15505103  0.03029086     0.36000
C2198       C  0.81055882  0.15860672  0.00524304    -0.20100
C2199       C  0.81119544  0.14332287  0.97694096    -0.25300
C2200       C  0.83069237  0.12455576  0.97303901     0.27400
H2201       H  0.86340330  0.13342407  0.04544672     0.13100
N2202       N  0.82847246  0.17050733  0.05947703    -0.82600
H2203       H  0.79659531  0.14624958  0.95787579     0.18000
N2204       N  0.83114673  0.10853868  0.94432557    -0.81200
H2205       H  0.84382958  0.16559457  0.07539712     0.33600
H2206       H  0.81110437  0.16607080  0.07178960     0.38100
H2207       H  0.81556898  0.11317759  0.92861540     0.33600
H2208       H  0.84831280  0.11265407  0.93143277     0.30300
H2209       H  0.91991652  0.13237361  0.96168532     0.33600
H2210       H  0.88880041  0.13412216  0.94869033     0.30300
H2211       H  0.88807953  0.03093015  0.04547688     0.38100
H2212       H  0.85730309  0.03217545  0.03107162     0.33600
C2213       C  0.57835555  0.06749100  0.00456423    -0.20100
C2214       C  0.60098112  0.06435063  0.02418422     0.36100
C2215       C  0.61881506  0.08465649  0.02677852    -0.26100
C2216       C  0.61398030  0.10814168  0.01103847     0.02500
C2217       C  0.59079939  0.11190457  0.99287707     0.27300
C2218       C  0.57318086  0.09140670  0.98961640    -0.25200
N2219       N  0.60541335  0.04087279  0.04208187    -0.82600
H2220       H  0.63660155  0.08222860  0.04111161     0.13100
C2221       C  0.63410632  0.12818245  0.01286857     0.02500
N2222       N  0.58538449  0.13644348  0.97787183    -0.81200
H2223       H  0.55545944  0.09404292  0.97521909     0.18000
C2224       C  0.64941514  0.13298545  0.98507367    -0.26000
C2225       C  0.67030433  0.15037075  0.98650806     0.36000
C2226       C  0.67570374  0.16304144  0.01631829    -0.20100
C2227       C  0.66008504  0.15856909  0.04399241    -0.25300
C2228       C  0.63917329  0.14113580  0.04251551     0.27400
H2229       H  0.64527287  0.12280740  0.96244088     0.13100
N2230       N  0.68573313  0.15565724  0.95777640    -0.82600
H2231       H  0.66418764  0.16880682  0.06657919     0.18000
N2232       N  0.62307790  0.13642168  0.07081691    -0.81200
H2233       H  0.67862535  0.14532026  0.93763403     0.33600
H2234       H  0.70469623  0.14889760  0.96229182     0.38100
H2235       H  0.62944752  0.14750328  0.09068955     0.33600
H2236       H  0.60411170  0.14264185  0.06508976     0.30300
H2237       H  0.56743896  0.13598818  0.96539769     0.33600
H2238       H  0.58337168  0.14987594  0.99675644     0.30300
H2239       H  0.59045546  0.03914780  0.05943809     0.38100
H2240       H  0.62295251  0.04189372  0.05535798     0.33600
C2241       C  0.90623615  0.48788418  0.89134070    -0.20100
C2242       C  0.88613388  0.00595690  0.89770560     0.36100
C2243       C  0.86422419  0.00726976  0.87662885    -0.26100
C2244       C  0.86200841  0.49189763  0.84856366     0.02500
C2245       C  0.88295586  0.47517009  0.84091884     0.27300
C2246       C  0.90489277  0.47343944  0.86224969    -0.25200
N2247       N  0.88789713  0.02270282  0.92569678    -0.82600
H2248       H  0.84849816  0.02058920  0.88202449     0.13100
C2249       C  0.83867233  0.49501848  0.82631554     0.02500
N2250       N  0.88164957  0.45968800  0.81178862    -0.81200
H2251       H  0.92063526  0.46020426  0.85665043     0.18000
C2252       C  0.84209940  0.50492340  0.79447622    -0.26000
C2253       C  0.82049204  0.51047332  0.77387729     0.36000
C2254       C  0.79466578  0.50638564  0.78545919    -0.20100
C2255       C  0.79122510  0.99525481  0.81903973    -0.25300
C2256       C  0.81330636  0.98967311  0.83889828     0.27400
H2257       H  0.86176220  0.50890304  0.78592875     0.13100
N2258       N  0.82473094  0.52031952  0.74123797    -0.82600
H2259       H  0.77171932  0.99233721  0.82875345     0.18000
N2260       N  0.81000544  0.97953870  0.87154980    -0.81200
H2261       H  0.84475420  0.52215567  0.73648655     0.33600
H2262       H  0.81747837  0.50678428  0.72460754     0.38100
H2263       H  0.79012561  0.97724832  0.87688480     0.33600
H2264       H  0.81831853  0.96114972  0.87209602     0.30300
H2265       H  0.89847776  0.44835578  0.80967872     0.33600
H2266       H  0.86589696  0.44700978  0.81447372     0.30300
H2267       H  0.90394025  0.03488107  0.92205641     0.38100
H2268       H  0.87138633  0.03455444  0.92711384     0.33600
C2269       C  0.70098647  0.50633492  0.79124261    -0.20100
C2270       C  0.68731269  0.48283938  0.78758655     0.36100
C2271       C  0.66510362  0.47769831  0.80732582    -0.26100
C2272       C  0.65305183  0.99453044  0.82831267     0.02500
C2273       C  0.66872817  0.01594126  0.83652944     0.27300
C2274       C  0.69166373  0.02115916  0.81842414    -0.25200
N2275       N  0.69541843  0.46466594  0.76314795    -0.82600
H2276       H  0.65468318  0.45967566  0.80459622     0.13100
C2277       C  0.62884064  0.98844653  0.84746973     0.02500
N2278       N  0.66128873  0.03226976  0.86334972    -0.81200
H2279       H  0.70332621  0.03793412  0.82437723     0.18000
C2280       C  0.63121901  0.97454243  0.87687237    -0.26000
C2281       C  0.60953997  0.97046379  0.89746770     0.36000
C2282       C  0.58951608  0.48226538  0.89508140    -0.20100
C2283       C  0.58553336  0.48637329  0.86111483    -0.25300
C2284       C  0.60685507  0.49012364  0.83932010     0.27400
H2285       H  0.65022879  0.96717734  0.88425300     0.13100
N2286       N  0.61297525  0.95574106  0.92704704    -0.82600
H2287       H  0.56572224  0.48734637  0.85158111     0.18000
N2288       N  0.60222292  0.49486301  0.80496666    -0.81200
H2289       H  0.62726099  0.96477221  0.94142018     0.33600
H2290       H  0.61996370  0.93752600  0.92067775     0.38100
H2291       H  0.58215051  0.49449713  0.79979792     0.33600
H2292       H  0.60867619  0.51351912  0.79971200     0.30300
H2293       H  0.67501925  0.04697192  0.86658965     0.33600
H2294       H  0.64361469  0.04118431  0.85696849     0.30300
H2295       H  0.69248413  0.47325731  0.74014074     0.38100
H2296       H  0.68348617  0.44832908  0.76374282     0.33600
C2297       C  0.00114754  0.18115274  0.78916018    -0.20100
C2298       C  0.98116557  0.17757576  0.81287816     0.36100
C2299       C  0.98014005  0.15493786  0.83186988    -0.26100
C2300       C  0.49507708  0.13648315  0.82928055     0.02500
C2301       C  0.51579007  0.13930135  0.80679893     0.27300
C2302       C  0.51782158  0.16202866  0.78785127    -0.25200
N2303       N  0.96171905  0.19703387  0.81788034    -0.82600
H2304       H  0.96479987  0.15276419  0.85000585     0.13100
C2305       C  0.99741200  0.11213094  0.84980286     0.02500
N2306       N  0.53500106  0.11921652  0.80376037    -0.81200
H2307       H  0.53362892  0.16319832  0.77051916     0.18000
C2308       C  0.99171862  0.08772752  0.83681359    -0.26000
C2309       C  0.98995442  0.06571375  0.85730961     0.36000
C2310       C  0.99483911  0.06805004  0.89150606    -0.20100
C2311       C  0.49441337  0.09392501  0.90528292    -0.25300
C2312       C  0.49555918  0.11590521  0.88524492     0.27400
H2313       H  0.98815126  0.08597741  0.81064658     0.13100
N2314       N  0.98281166  0.04128318  0.84350516    -0.82600
H2315       H  0.49685561  0.09644746  0.93152089     0.18000
N2316       N  0.49987645  0.14081911  0.89956291    -0.81200
H2317       H  0.98027675  0.04285897  0.81805678     0.33600
H2318       H  0.96454719  0.03623216  0.85312522     0.38100
H2319       H  0.50111420  0.13947564  0.92517525     0.33600
H2320       H  0.51807679  0.14744796  0.89144002     0.30300
H2321       H  0.54903842  0.12412526  0.78618559     0.33600
H2322       H  0.54491302  0.11774948  0.82624291     0.30300
H2323       H  0.94330518  0.18888584  0.81361000     0.38100
H2324       H  0.96259946  0.20273052  0.84247813     0.33600
C2325       C  0.99574961  0.39150915  0.88980244    -0.20100
C2326       C  0.98566069  0.36694137  0.89855991     0.36100
C2327       C  0.98769827  0.34623753  0.87654425    -0.26100
C2328       C  0.49891794  0.34879400  0.85018114     0.02500
C2329       C  0.50786343  0.37328585  0.84039815     0.27300
C2330       C  0.50602065  0.39418796  0.86235626    -0.25200
N2331       N  0.97302682  0.36305666  0.92969473    -0.82600
H2332       H  0.98035833  0.32745410  0.88362888     0.13100
C2333       C  0.50150954  0.32590408  0.82859848     0.02500
N2334       N  0.51912811  0.37670285  0.80837528    -0.81200
H2335       H  0.51358778  0.41280282  0.85501820     0.18000
C2336       C  0.98457831  0.32233827  0.79752406    -0.26000
C2337       C  0.98452896  0.29902741  0.77984405     0.36000
C2338       C  0.00202955  0.27908159  0.78870705    -0.20100
C2339       C  0.52114477  0.28433725  0.81643794    -0.25300
C2340       C  0.52088669  0.30717448  0.83492316     0.27400
H2341       H  0.97049948  0.33718220  0.79120211     0.13100
N2342       N  0.96576672  0.29526227  0.75405590    -0.82600
H2343       H  0.53574766  0.26974746  0.82175171     0.18000
N2344       N  0.53997947  0.31133577  0.86042098    -0.81200
H2345       H  0.94703706  0.29754777  0.76391033     0.33600
H2346       H  0.96856279  0.30965309  0.73638043     0.38100
H2347       H  0.55287303  0.29573872  0.86202048     0.33600
H2348       H  0.55121022  0.32729597  0.85359654     0.30300
H2349       H  0.52469579  0.39586706  0.80482091     0.33600
H2350       H  0.53627867  0.36572832  0.80753403     0.30300
H2351       H  0.95598529  0.37421672  0.92950902     0.38100
H2352       H  0.96706721  0.34392692  0.93250683     0.33600
C2353       C  0.83857524  0.26592627  0.61119900    -0.20100
C2354       C  0.86086283  0.28190533  0.60883988     0.36100
C2355       C  0.88252553  0.27751119  0.62972052    -0.26100
C2356       C  0.88272558  0.25715018  0.65264085     0.02500
C2357       C  0.85983260  0.24192694  0.65598009     0.27300
C2358       C  0.83793734  0.24673712  0.63555365    -0.25200
N2359       N  0.86146392  0.30242118  0.58500678    -0.82600
H2360       H  0.89955321  0.28984186  0.62775858     0.13100
C2361       C  0.90715479  0.25165555  0.67225260     0.02500
N2362       N  0.85918994  0.22099675  0.67919436    -0.81200
H2363       H  0.82084442  0.23445901  0.63736667     0.18000
C2364       C  0.90560486  0.24828951  0.70651432    -0.26000
C2365       C  0.92780885  0.24175507  0.72533230     0.36000
C2366       C  0.95244918  0.23949202  0.71018216    -0.20100
C2367       C  0.95441641  0.24379281  0.67625785    -0.25300
C2368       C  0.93198084  0.24923957  0.65698836     0.27400
H2369       H  0.88697619  0.25055068  0.71881310     0.13100
N2370       N  0.92532258  0.23761953  0.76001246    -0.82600
H2371       H  0.97336382  0.24191056  0.66460507     0.18000
N2372       N  0.93423480  0.25158618  0.62188895    -0.81200
H2373       H  0.91760215  0.25432634  0.77040758     0.33600
H2374       H  0.91190285  0.22270253  0.76370538     0.38100
H2375       H  0.95369911  0.24925439  0.61458857     0.33600
H2376       H  0.92365047  0.23647058  0.61138023     0.30300
H2377       H  0.84095086  0.21185479  0.67875158     0.33600
H2378       H  0.87298230  0.20737147  0.67173171     0.30300
H2379       H  0.84683073  0.31558705  0.59124439     0.38100
H2380       H  0.87925468  0.31233556  0.58623153     0.33600
C2381       C  0.65998595  0.26411970  0.60685449    -0.20100
C2382       C  0.66079214  0.24764805  0.63463073     0.36100
C2383       C  0.63803362  0.24416052  0.65374621    -0.26100
C2384       C  0.61446695  0.25685723  0.64603479     0.02500
C2385       C  0.61382678  0.27389390  0.61894689     0.27300
C2386       C  0.63650129  0.27731334  0.59970785    -0.25200
N2387       N  0.68418549  0.23342314  0.64236938    -0.82600
H2388       H  0.63853697  0.23115076  0.67462906     0.13100
C2389       C  0.59045537  0.25125739  0.66582604     0.02500
N2390       N  0.58996693  0.28711735  0.61053361    -0.81200
H2391       H  0.63567518  0.28997556  0.57848650     0.18000
C2392       C  0.57863254  0.27079222  0.68435380    -0.26000
C2393       C  0.55698507  0.26563547  0.70493339     0.36000
C2394       C  0.54613740  0.24054661  0.70601907    -0.20100
C2395       C  0.55773190  0.22124214  0.68671112    -0.25300
C2396       C  0.57980348  0.22623630  0.66702341     0.27400
H2397       H  0.58701620  0.28993677  0.68373809     0.13100
N2398       N  0.54693550  0.28551234  0.72581979    -0.82600
H2399       H  0.54961649  0.20199256  0.68711422     0.18000
N2400       N  0.59158734  0.20590873  0.64832597    -0.81200
H2401       H  0.55685327  0.30283036  0.72179768     0.33600
H2402       H  0.55096860  0.28009267  0.75009694     0.38100
H2403       H  0.58172573  0.18853821  0.65220692     0.33600
H2404       H  0.58932967  0.21049262  0.62342476     0.30300
H2405       H  0.59276319  0.29902852  0.59006354     0.33600
H2406       H  0.57619648  0.27325245  0.60361230     0.30300
H2407       H  0.69819772  0.24659025  0.65058735     0.38100
H2408       H  0.68089364  0.22078745  0.66199470     0.33600
C2409       C  0.74464950  0.06701030  0.71144285    -0.20100
C2410       C  0.76558862  0.07272744  0.68971321     0.36100
C2411       C  0.76556141  0.09566442  0.67111205    -0.26100
C2412       C  0.74476880  0.11319788  0.67288846     0.02500
C2413       C  0.72369976  0.10776867  0.69400082     0.27300
C2414       C  0.72389169  0.08503128  0.71307760    -0.25200
N2415       N  0.78688948  0.05503862  0.68601265    -0.82600
H2416       H  0.78170266  0.09955602  0.65460272     0.13100
C2417       C  0.74487476  0.13674531  0.65171380     0.02500
N2418       N  0.70200066  0.12535704  0.69579991    -0.81200
H2419       H  0.70723468  0.08171892  0.72855447     0.18000
C2420       C  0.72641960  0.13908000  0.62620096    -0.26000
C2421       C  0.72662384  0.16040324  0.60471525     0.36000
C2422       C  0.74553435  0.17997999  0.60899456    -0.20100
C2423       C  0.76343166  0.17811758  0.63518397    -0.25300
C2424       C  0.76340701  0.15657340  0.65645070     0.27400
H2425       H  0.71211008  0.12393362  0.62269469     0.13100
N2426       N  0.70781935  0.16221118  0.57836025    -0.82600
H2427       H  0.77799927  0.19307264  0.63836361     0.18000
N2428       N  0.78228588  0.15457050  0.68263272    -0.81200
H2429       H  0.69540736  0.14621462  0.57836345     0.33600
H2430       H  0.69604123  0.17828693  0.58276794     0.38100
H2431       H  0.79470582  0.17056399  0.68263665     0.33600
H2432       H  0.77204041  0.15496500  0.70482143     0.30300
H2433       H  0.68785671  0.11860180  0.71221773     0.33600
H2434       H  0.70903973  0.14266948  0.70538665     0.30300
H2435       H  0.80426639  0.06465381  0.69187468     0.38100
H2436       H  0.78777879  0.04964941  0.66131084     0.33600
C2437       C  0.74659098  0.47068316  0.70321211    -0.20100
C2438       C  0.76754241  0.45336953  0.70790287     0.36100
C2439       C  0.76837552  0.43024182  0.69007119    -0.26100
C2440       C  0.74860186  0.42409211  0.66738836     0.02500
C2441       C  0.72774401  0.44149664  0.66227710     0.27300
C2442       C  0.72694227  0.46464415  0.68022316    -0.25200
N2443       N  0.78858255  0.45970932  0.72977106    -0.82600
H2444       H  0.78475339  0.41722693  0.69353999     0.13100
C2445       C  0.75072275  0.40027959  0.64737002    -0.00700
N2446       N  0.70758220  0.43560236  0.63871034    -0.81200
H2447       H  0.71093665  0.47802616  0.67632095     0.18000
C2448       C  0.73617489  0.37832779  0.65588867    -0.26000
C2449       C  0.73609722  0.35624894  0.63571263     0.36000
C2450       C  0.75113914  0.35609040  0.60658469    -0.20100
C2451       C  0.76602220  0.37804411  0.59859456    -0.25300
C2452       C  0.76594916  0.40005660  0.61860393     0.27400
H2453       H  0.72431809  0.37871292  0.67790712     0.13100
N2454       N  0.72007066  0.33447768  0.64408252    -0.82600
H2455       H  0.77762963  0.37811966  0.57635540     0.18000
N2456       N  0.78106873  0.42233891  0.60966444    -0.81200
H2457       H  0.71038166  0.33762695  0.66629738     0.33600
H2458       H  0.70554650  0.33286624  0.62600325     0.38100
H2459       H  0.79136083  0.41903822  0.58792044     0.33600
H2460       H  0.76798524  0.43735297  0.60468668     0.30300
H2461       H  0.69359842  0.45029504  0.63790587     0.33600
H2462       H  0.71623696  0.43508931  0.61547597     0.30300
H2463       H  0.79000141  0.44520366  0.74756706     0.38100
H2464       H  0.80596488  0.45981480  0.71627731     0.33600
C2465       C  0.83834551  0.18239792  0.50093812    -0.20100
C2466       C  0.83683766  0.15983367  0.52035595     0.36100
C2467       C  0.85596486  0.14065920  0.51670636    -0.26100
C2468       C  0.87632958  0.14360236  0.49406128     0.02500
C2469       C  0.87852583  0.16652638  0.47572852     0.27300
C2470       C  0.85946134  0.18574906  0.47932986    -0.25200
N2471       N  0.81642255  0.15675267  0.54430239    -0.82600
H2472       H  0.85471529  0.12307898  0.53104432     0.13100
C2473       C  0.89486301  0.12218971  0.48914807     0.02500
N2474       N  0.90002152  0.17002933  0.45345037    -0.81200
H2475       H  0.86074871  0.20316646  0.46468791     0.18000
C2476       C  0.89452982  0.10895382  0.45917307    -0.26000
C2477       C  0.91203167  0.08864426  0.45341416     0.36000
C2478       C  0.93020845  0.08178682  0.47806755    -0.20100
C2479       C  0.93015568  0.09465777  0.50828760    -0.25300
C2480       C  0.91265305  0.11492945  0.51405289     0.27400
H2481       H  0.88062902  0.11459595  0.44025977     0.13100
N2482       N  0.91202277  0.07550638  0.42239724    -0.82600
H2483       H  0.94431378  0.08925968  0.52701121     0.18000
N2484       N  0.91315548  0.12850813  0.54475237    -0.81200
H2485       H  0.89785512  0.08336538  0.40665851     0.33600
H2486       H  0.90643414  0.05645362  0.42676618     0.38100
H2487       H  0.92734654  0.12068258  0.56048415     0.33600
H2488       H  0.91890701  0.14743793  0.53981144     0.30300
H2489       H  0.89856722  0.18781271  0.44150345     0.33600
H2490       H  0.91723080  0.17053519  0.46746535     0.30300
H2491       H  0.79895196  0.15327785  0.53162251     0.38100
H2492       H  0.81981164  0.14037503  0.55873175     0.33600
C2493       C  0.56424821  0.08834364  0.47987244    -0.20100
C2494       C  0.56870332  0.09945483  0.51086363     0.36100
C2495       C  0.58774120  0.11867907  0.51399661    -0.26100
C2496       C  0.60196852  0.12709423  0.48659202     0.02500
C2497       C  0.59675461  0.11657237  0.45530120     0.27300
C2498       C  0.57798184  0.09703842  0.45229586    -0.25200
N2499       N  0.55439903  0.09054712  0.53907075    -0.82600
H2500       H  0.59191828  0.12676222  0.53795724     0.13100
C2501       C  0.62316643  0.14603552  0.49126158     0.02500
N2502       N  0.61066479  0.12569845  0.42688688    -0.81200
H2503       H  0.57408333  0.08846281  0.42853930     0.18000
C2504       C  0.64870086  0.13920402  0.48241237    -0.26000
C2505       C  0.66940868  0.15675858  0.48517718     0.36000
C2506       C  0.66441487  0.18167761  0.49769662    -0.20100
C2507       C  0.63888615  0.18804569  0.50770886    -0.25300
C2508       C  0.61819506  0.17051300  0.50452551     0.27400
H2509       H  0.65237427  0.12012562  0.47280648     0.13100
N2510       N  0.69519822  0.14944452  0.47458978    -0.82600
H2511       H  0.63493806  0.20691292  0.51777217     0.18000
N2512       N  0.59213707  0.17754675  0.51432367    -0.81200
H2513       H  0.69551434  0.13021726  0.46713165     0.33600
H2514       H  0.69967245  0.16045630  0.45378259     0.38100
H2515       H  0.59187726  0.19617906  0.52391075     0.33600
H2516       H  0.58039260  0.17786527  0.49321054     0.30300
H2517       H  0.60458765  0.11585725  0.40583183     0.33600
H2518       H  0.60560483  0.14501031  0.42331381     0.30300
H2519       H  0.53468343  0.09521209  0.53536937     0.38100
H2520       H  0.56040578  0.10036774  0.56016788     0.33600
C2521       C  0.56960375  0.45206649  0.50164785    -0.20100
C2522       C  0.58188023  0.44446557  0.47216373     0.36100
C2523       C  0.60054945  0.42484116  0.47331298    -0.26100
C2524       C  0.60708623  0.41273304  0.50306807     0.02500
C2525       C  0.59497146  0.42038359  0.53247906     0.27300
C2526       C  0.57630369  0.44011583  0.53146238    -0.25200
N2527       N  0.57555109  0.45571502  0.44074665    -0.82600
H2528       H  0.60998646  0.41887799  0.45077277     0.13100
C2529       C  0.62661991  0.39193793  0.50287896     0.02500
N2530       N  0.60144222  0.40785366  0.56303484    -0.81200
H2531       H  0.56661454  0.44601929  0.55385572     0.18000
C2532       C  0.65050458  0.39561169  0.51916297    -0.26000
C2533       C  0.66985736  0.37658795  0.51861834     0.36000
C2534       C  0.66512886  0.35336188  0.50166765    -0.20100
C2535       C  0.64103267  0.34965307  0.48568282    -0.25300
C2536       C  0.62173214  0.36883303  0.48596644     0.27400
H2537       H  0.65421816  0.41344876  0.53208802     0.13100
N2538       N  0.69407627  0.38079866  0.53572655    -0.82600
H2539       H  0.63739218  0.33190327  0.47257720     0.18000
N2540       N  0.59723225  0.36505443  0.46911884    -0.81200
H2541       H  0.68988640  0.38420017  0.56046570     0.33600
H2542       H  0.70279066  0.39736685  0.52603406     0.38100
H2543       H  0.59688377  0.34713203  0.45754837     0.33600
H2544       H  0.58244869  0.36473838  0.48681880     0.30300
H2545       H  0.59082172  0.41590155  0.58236009     0.33600
H2546       H  0.59549491  0.38865969  0.56124153     0.30300
H2547       H  0.56113056  0.46985172  0.44261944     0.38100
H2548       H  0.59238734  0.46489712  0.43205540     0.33600
C2549       C  0.83711181  0.35341737  0.50349799    -0.20100
C2550       C  0.83042865  0.37991764  0.50313641     0.36100
C2551       C  0.85021436  0.39847538  0.50416459    -0.26100
C2552       C  0.87658525  0.39130206  0.50524967     0.02500
C2553       C  0.88353367  0.36511615  0.50539314     0.27300
C2554       C  0.86375061  0.34642615  0.50485676    -0.25200
N2555       N  0.80369477  0.38828440  0.50165957    -0.82600
H2556       H  0.84494025  0.41868773  0.50418457     0.13100
C2557       C  0.89673512  0.41152022  0.50653086     0.02500
N2558       N  0.91066561  0.35768260  0.50566839    -0.81200
H2559       H  0.86930806  0.32631432  0.50515820     0.18000
C2560       C  0.91314161  0.41293925  0.53414957    -0.26000
C2561       C  0.93217956  0.43210827  0.53670935     0.36000
C2562       C  0.93475883  0.45022818  0.51086720    -0.20100
C2563       C  0.91834347  0.44881565  0.48324914    -0.25300
C2564       C  0.89934929  0.42948754  0.48073157     0.27400
H2565       H  0.91089369  0.39919530  0.55406410     0.13100
N2566       N  0.94803284  0.43283662  0.56600768    -0.82600
H2567       H  0.92060962  0.46270730  0.46350972     0.18000
N2568       N  0.88287677  0.42782037  0.45206406    -0.81200
H2569       H  0.95972816  0.41631711  0.56624645     0.33600
H2570       H  0.96065903  0.44860614  0.56627122     0.38100
H2571       H  0.88730975  0.44255042  0.43540372     0.33600
H2572       H  0.88720861  0.41049233  0.44030788     0.30300
H2573       H  0.91248232  0.33764357  0.50581101     0.33600
H2574       H  0.91896333  0.36416877  0.48368459     0.30300
H2575       H  0.80000528  0.39970787  0.52222148     0.38100
H2576       H  0.80129595  0.39971331  0.48063742     0.33600
C2577       C  0.55037264  0.23852986  0.28908818    -0.20100
C2578       C  0.57586190  0.23764274  0.27553463     0.36100
C2579       C  0.59774956  0.24349393  0.29541731    -0.26100
C2580       C  0.59497099  0.24939822  0.32891028     0.02500
C2581       C  0.56950957  0.24988191  0.34249239     0.27300
C2582       C  0.54756975  0.24487328  0.32232055    -0.25200
N2583       N  0.57951082  0.23039613  0.24177770    -0.82600
H2584       H  0.61716651  0.24320336  0.28478661     0.13100
C2585       C  0.61881967  0.25433698  0.34965696     0.02500
N2586       N  0.56606140  0.25461251  0.37699347    -0.81200
H2587       H  0.52827892  0.24460523  0.33303004     0.18000
C2588       C  0.62022382  0.27672311  0.36892065    -0.26000
C2589       C  0.64158757  0.28125325  0.39019767     0.36000
C2590       C  0.66247681  0.26347562  0.39151219    -0.20100
C2591       C  0.66163605  0.24161920  0.37145948    -0.25300
C2592       C  0.63984316  0.23657417  0.35108023     0.27400
H2593       H  0.60437214  0.29056279  0.36768744     0.13100
N2594       N  0.64205643  0.30369027  0.41074234    -0.82600
H2595       H  0.67743617  0.22772284  0.37304761     0.18000
N2596       N  0.63855995  0.21299319  0.33280999    -0.81200
H2597       H  0.62514659  0.31472485  0.40714254     0.33600
H2598       H  0.65785660  0.31509067  0.40334424     0.38100
H2599       H  0.65549819  0.20203241  0.33659030     0.33600
H2600       H  0.62298167  0.20220506  0.34218380     0.30300
H2601       H  0.54619648  0.25427263  0.38312007     0.33600
H2602       H  0.57491258  0.23943924  0.38985004     0.30300
H2603       H  0.57057933  0.24431579  0.22690773     0.38100
H2604       H  0.59940071  0.23038054  0.23576138     0.33600
C2605       C  0.95382939  0.23885303  0.29149209    -0.20100
C2606       C  0.95573273  0.25313468  0.32083146     0.36100
C2607       C  0.93316582  0.25809238  0.33962355    -0.26100
C2608       C  0.90846986  0.24829750  0.33061537     0.02500
C2609       C  0.90633143  0.23434669  0.30102680     0.27300
C2610       C  0.92872378  0.23042967  0.28154447    -0.25200
N2611       N  0.98057388  0.26186526  0.33257082    -0.82600
H2612       H  0.93513207  0.26920829  0.36196502     0.13100
C2613       C  0.88538191  0.25194532  0.35291653     0.02500
N2614       N  0.88159107  0.22352283  0.29124810    -0.81200
H2615       H  0.92648285  0.22022198  0.25857265     0.18000
C2616       C  0.86143613  0.26127937  0.34035037    -0.26000
C2617       C  0.83929412  0.26454513  0.36066001     0.36000
C2618       C  0.84124737  0.25916204  0.39475868    -0.20100
C2619       C  0.86525942  0.24974955  0.40710466    -0.25300
C2620       C  0.88702685  0.24575322  0.38669069     0.27400
H2621       H  0.86003935  0.26624685  0.31451688     0.13100
N2622       N  0.81504760  0.27347667  0.34667172    -0.82600
H2623       H  0.86704679  0.24494875  0.43294507     0.18000
N2624       N  0.91074306  0.23503794  0.40016051    -0.81200
H2625       H  0.81676745  0.27598021  0.32125580     0.33600
H2626       H  0.81139134  0.29164605  0.35644422     0.38100
H2627       H  0.90902311  0.23208955  0.42549315     0.33600
H2628       H  0.91345156  0.21694660  0.38955760     0.30300
H2629       H  0.88329553  0.21382389  0.26890052     0.33600
H2630       H  0.87643593  0.20971296  0.30883724     0.30300
H2631       H  0.98363379  0.25399375  0.35598080     0.38100
H2632       H  0.97973816  0.28187208  0.33490509     0.33600
C2633       C  0.74861754  0.35406462  0.39089714    -0.20100
C2634       C  0.76518335  0.35525411  0.36316438     0.36100
C2635       C  0.76449681  0.37716674  0.34244725    -0.26100
C2636       C  0.74778412  0.39795546  0.34913380     0.02500
C2637       C  0.73091902  0.39655237  0.37639015     0.27300
C2638       C  0.73144246  0.37466041  0.39685560    -0.25200
N2639       N  0.78342614  0.33483084  0.35698150    -0.82600
H2640       H  0.77761333  0.37843411  0.32163421     0.13100
C2641       C  0.74942481  0.42205137  0.32927289     0.02500
N2642       N  0.71362389  0.41762760  0.38349147    -0.81200
H2643       H  0.71865062  0.37385479  0.41802751     0.18000
C2644       C  0.73116818  0.42677441  0.30407504    -0.26000
C2645       C  0.73100130  0.45036494  0.28686566     0.36000
C2646       C  0.74956038  0.46956793  0.29463084    -0.20100
C2647       C  0.76778924  0.46476619  0.31989288    -0.25300
C2648       C  0.76784373  0.44126821  0.33734329     0.27400
H2649       H  0.71659371  0.41231843  0.29827149     0.13100
N2650       N  0.71120825  0.45516925  0.26254822    -0.82600
H2651       H  0.78204592  0.47943064  0.32603456     0.18000
N2652       N  0.78641417  0.43686428  0.36343508    -0.81200
H2653       H  0.69290866  0.45331187  0.27374763     0.33600
H2654       H  0.71268994  0.44102736  0.24445902     0.38100
H2655       H  0.79872574  0.45278654  0.36619080     0.33600
H2656       H  0.77595173  0.43512660  0.38536644     0.30300
H2657       H  0.70224905  0.41348721  0.40415903     0.33600
H2658       H  0.72517559  0.43351990  0.38960685     0.30300
H2659       H  0.79688414  0.33455928  0.37643369     0.38100
H2660       H  0.79415281  0.33861895  0.33566336     0.33600
C2661       C  0.75403275  0.17931432  0.39273107    -0.20100
C2662       C  0.77110212  0.15817406  0.39712414     0.36100
C2663       C  0.77047416  0.13747507  0.37494369    -0.26100
C2664       C  0.75266588  0.13701845  0.34855968     0.02500
C2665       C  0.73563170  0.15818179  0.34387559     0.27300
C2666       C  0.73676354  0.17928695  0.36569156    -0.25200
N2667       N  0.78927384  0.15772191  0.42406193    -0.82600
H2668       H  0.78365702  0.12137330  0.37874191     0.13100
C2669       C  0.75191152  0.11401075  0.32654477     0.02500
N2670       N  0.71702099  0.15797058  0.31727846    -0.81200
H2671       H  0.72349356  0.19536305  0.36224745     0.18000
C2672       C  0.73017478  0.09754516  0.32703630    -0.26000
C2673       C  0.72960915  0.07475376  0.30834867     0.36000
C2674       C  0.75093728  0.06810786  0.28775012    -0.20100
C2675       C  0.77262071  0.08509681  0.28726200    -0.25300
C2676       C  0.77331360  0.10770300  0.30638533     0.27400
H2677       H  0.71373550  0.10206435  0.34275713     0.13100
N2678       N  0.70733633  0.05811840  0.31084419    -0.82600
H2679       H  0.78965314  0.08096085  0.27279621     0.18000
N2680       N  0.79589610  0.12422688  0.30568449    -0.81200
H2681       H  0.69068958  0.06861660  0.30402483     0.33600
H2682       H  0.70530799  0.05263026  0.33545960     0.38100
H2683       H  0.81018912  0.11690610  0.28994978     0.33600
H2684       H  0.79001043  0.14191964  0.29579027     0.30300
H2685       H  0.70573938  0.17476836  0.31737213     0.33600
H2686       H  0.72754729  0.15805733  0.29529456     0.30300
H2687       H  0.78549185  0.14131189  0.43822644     0.38100
H2688       H  0.80818102  0.15606256  0.41452700     0.33600
O2689       O  0.75163319  0.72420054  0.40559414    -0.86800
O2690       O  0.75032131  0.72664238  0.59413124    -0.86900
O2691       O  0.79348995  0.69568248  0.50414469    -0.88600
O2692       O  0.70956294  0.69449453  0.49944257    -0.87300
O2693       O  0.67755694  0.72534154  0.49883350    -0.86900
O2694       O  0.82521807  0.72678218  0.50438107    -0.88300
O2695       O  0.74869022  0.69575088  0.55385603    -0.86800
O2696       O  0.75330277  0.69454275  0.44755954    -0.86400
Zr2697     Zr  0.75122845  0.71670866  0.50037944     2.84300
O2698       O  0.72457644  0.74261540  0.53317514    -1.08300
O2699       O  0.77765297  0.74203270  0.46659764    -1.09100
C2700       C  0.75286898  0.70082926  0.41675934     1.06400
C2701       C  0.74898579  0.70301369  0.58415882     1.06300
C2702       C  0.81753706  0.70311056  0.50575632     1.09300
C2703       C  0.68541417  0.70168579  0.49887488     1.07100
H2704       H  0.78782251  0.73233281  0.54826774     0.32600
O2705       O  0.77701377  0.74291891  0.53410597    -1.29300
H2706       H  0.71421227  0.73049594  0.45245592     0.32300
O2707       O  0.72492503  0.74172834  0.46571070    -1.31000
O2708       O  0.74984493  0.81261475  0.59135073    -0.86700
O2709       O  0.74963462  0.80943978  0.40308027    -0.88200
O2710       O  0.82481703  0.77004962  0.55371566    -0.86800
O2711       O  0.67630079  0.76694246  0.55228654    -0.86900
O2712       O  0.67661047  0.76668118  0.44484082    -0.86600
O2713       O  0.82580703  0.76377615  0.44813246    -0.86400
O2714       O  0.79268592  0.84109893  0.49501491    -0.86800
O2715       O  0.70855335  0.84023232  0.49679197    -0.86200
O2716       O  0.82460063  0.81033291  0.49774549    -0.87300
O2717       O  0.67643114  0.80949258  0.49751585    -0.86400
O2718       O  0.79356441  0.76869060  0.59419382    -0.86800
O2719       O  0.79550803  0.76341030  0.40627843    -0.86600
O2720       O  0.70808071  0.76421613  0.40459620    -0.86200
O2721       O  0.70726161  0.76736162  0.59339628    -0.86600
O2722       O  0.75119528  0.84228479  0.54938369    -0.86900
O2723       O  0.74760944  0.83995714  0.44359392    -0.88300
Zr2724     Zr  0.75044740  0.76912810  0.56689524     2.83100
Zr2725     Zr  0.75144938  0.76701129  0.43112918     2.83500
Zr2726     Zr  0.80335269  0.76840203  0.50020521     2.84100
Zr2727     Zr  0.69817291  0.76768153  0.49860436     2.83400
Zr2728     Zr  0.75073546  0.81922949  0.49732376     2.84200
O2729       O  0.72463912  0.79290009  0.46427121    -1.08800
O2730       O  0.77698114  0.79468280  0.53274967    -1.08300
C2731       C  0.75041467  0.83606243  0.58017029     1.06300
C2732       C  0.74771991  0.83308085  0.41310480     1.08900
C2733       C  0.81761324  0.76928578  0.58410114     1.06500
C2734       C  0.68324896  0.76660302  0.58297442     1.06900
C2735       C  0.68399678  0.76477161  0.41456628     1.06400
C2736       C  0.81934797  0.76204736  0.41750663     1.06000
C2737       C  0.81687125  0.83397062  0.49561744     1.06400
C2738       C  0.68441371  0.83309798  0.49709001     1.05900
H2739       H  0.78860621  0.80407150  0.45059524     0.32600
O2740       O  0.77764187  0.79354473  0.46446764    -1.29900
H2741       H  0.71304903  0.80519935  0.54484021     0.32600
O2742       O  0.72414013  0.79424053  0.53176150    -1.31300
N2743       N  0.96096432  0.51737232  0.51254142    -0.36900
N2744       N  0.49943135  0.55673776  0.50904376    -0.57400
N2745       N  0.54031926  0.51828362  0.50176760    -0.36900
N2746       N  0.50329616  0.97902681  0.47409416    -0.57400
C2747       C  0.94588979  0.53768294  0.52074698     0.26700
C2748       C  0.94685138  0.99455402  0.46959811     0.26700
C2749       C  0.55496324  0.53947549  0.50731311     0.26700
C2750       C  0.55687861  0.99993368  0.48091673     0.26700
C2751       C  0.97870372  0.57220491  0.51169824     0.35300
C2752       C  0.51976833  0.57247783  0.50256091     0.35300
C2753       C  0.98190642  0.96318013  0.45535640     0.35300
C2754       C  0.52513824  0.96500355  0.46921425     0.35300
C2755       C  0.92170560  0.52912845  0.53163964    -0.22200
C2756       C  0.92289759  0.00028659  0.48385752    -0.22200
C2757       C  0.58051073  0.53228176  0.51457814    -0.22200
C2758       C  0.58078434  0.00883348  0.49245479    -0.22200
C2759       C  0.98579001  0.59725189  0.50399636    -0.23200
C2760       C  0.51097148  0.59731859  0.49669082    -0.23200
C2761       C  0.99084920  0.93869757  0.44789857    -0.23200
C2762       C  0.51867541  0.94002096  0.46058660    -0.23200
C2763       C  0.95281661  0.56369921  0.51637047    -0.18600
C2764       C  0.95556333  0.96940342  0.46229313    -0.18600
C2765       C  0.55068256  0.97381563  0.47568287    -0.18600
C2766       C  0.54628358  0.56514867  0.50420304    -0.18600
H2767       H  0.90527583  0.54073215  0.53943341     0.14300
H2768       H  0.90791479  0.98691444  0.49173954     0.14300
H2769       H  0.59698764  0.54475209  0.51969349     0.14300
H2770       H  0.59760223  0.99749670  0.49988335     0.14300
H2771       H  0.97298267  0.61347424  0.49931049     0.12600
H2772       H  0.52260573  0.61424859  0.49149696     0.12600
H2773       H  0.97922299  0.92162207  0.44357853     0.12600
H2774       H  0.53186458  0.92412489  0.45608430     0.12600
H2775       H  0.97853754  0.51819690  0.49981082     0.25900
H2776       H  0.52153184  0.51800544  0.49197015     0.25900
O2777       O  0.99487319  0.93630927  0.90341862    -0.86800
O2778       O  0.99667515  0.93540797  0.09290877    -0.86900
O2779       O  0.53802825  0.90754719  0.99734285    -0.88600
O2780       O  0.95285195  0.90624563  0.99966776    -0.87300
O2781       O  0.92152976  0.93769515  0.99858257    -0.86900
O2782       O  0.56967731  0.93871582  0.99602212    -0.88300
O2783       O  0.99635613  0.90559080  0.05129742    -0.86800
O2784       O  0.99361965  0.90586977  0.94456606    -0.86400
Zr2785     Zr  0.99517550  0.92729573  0.99795703     2.84300
O2786       O  0.96991940  0.95288281  0.03261494    -1.08300
O2787       O  0.52157195  0.95449078  0.96442508    -1.09100
C2788       C  0.99378311  0.91269673  0.91393041     1.06400
C2789       C  0.99694594  0.91196342  0.08198953     1.06300
C2790       C  0.56201443  0.91500205  0.99604465     1.09300
C2791       C  0.92885438  0.91397564  0.99971097     1.07100
H2792       H  0.53441599  0.94372633  0.04512366     0.32600
O2793       O  0.52285841  0.95441276  0.03203966    -1.29300
H2794       H  0.95764683  0.94256043  0.95030225     0.32300
O2795       O  0.96909967  0.95302942  0.96367795    -1.31000
O2796       O  0.99903281  0.52119999  0.09380709    -0.86700
O2797       O  0.99606990  0.52294570  0.90426380    -0.88200
O2798       O  0.57140871  0.98156813  0.04952701    -0.86800
O2799       O  0.92270759  0.97979380  0.05143693    -0.86900
O2800       O  0.92177960  0.98327448  0.94557820    -0.86600
O2801       O  0.56936069  0.98065003  0.94400103    -0.86400
O2802       O  0.53840076  0.55306996  0.00216413    -0.86800
O2803       O  0.95359441  0.55202367  0.99926473    -0.86200
O2804       O  0.57026732  0.52204881  0.00511425    -0.87300
O2805       O  0.92240991  0.52048730  0.99808434    -0.86400
O2806       O  0.54174338  0.98172250  0.09161474    -0.86800
O2807       O  0.54258520  0.48032728  0.90706169    -0.86600
O2808       O  0.95221770  0.48255492  0.90430014    -0.86200
O2809       O  0.95306906  0.97945004  0.09304476    -0.86600
O2810       O  0.99814754  0.55144804  0.05268518    -0.86900
O2811       O  0.99502893  0.55263161  0.94571076    -0.88300
Zr2812     Zr  0.99681501  0.97843782  0.06676421     2.83100
Zr2813     Zr  0.99574706  0.97905231  0.92986788     2.83500
Zr2814     Zr  0.54794088  0.98055943  0.99736423     2.84100
Zr2815     Zr  0.94408090  0.97872493  0.99837653     2.83400
Zr2816     Zr  0.99599775  0.53082132  0.99885373     2.84200
O2817       O  0.97028162  0.50505021  0.96474858    -1.08800
O2818       O  0.52304672  0.50547611  0.03461646    -1.08300
C2819       C  0.99932145  0.54481209  0.08336869     1.06300
C2820       C  0.99530180  0.54642771  0.91496326     1.08900
C2821       C  0.56557460  0.98241754  0.08039266     1.06500
C2822       C  0.92908872  0.98014982  0.08217205     1.06900
C2823       C  0.92833383  0.48406429  0.91520038     1.06400
C2824       C  0.56652298  0.48087355  0.91846425     1.06000
C2825       C  0.56238508  0.54569157  0.00487256     1.06400
C2826       C  0.92958856  0.54426336  0.99885528     1.05900
H2827       H  0.53473705  0.51691007  0.95381997     0.32600
O2828       O  0.52358932  0.50587097  0.96684191    -1.29900
H2829       H  0.95936005  0.51564072  0.04622497     0.32600
O2830       O  0.97030232  0.50478364  0.03276546    -1.31300
N2831       N  0.78614439  0.72982148  0.01870463    -0.36900
N2832       N  0.74657044  0.69071964  0.02232184    -0.57400
N2833       N  0.70589812  0.72989210  0.01872749    -0.36900
N2834       N  0.74541701  0.76890002  0.01298040    -0.57400
C2835       C  0.80068728  0.70865772  0.01257887     0.26700
C2836       C  0.79998058  0.75029173  0.00795905     0.26700
C2837       C  0.69187910  0.70841166  0.01258366     0.26700
C2838       C  0.69130829  0.75012592  0.00839300     0.26700
C2839       C  0.76778713  0.67598218  0.02860236     0.35300
C2840       C  0.72545725  0.67595285  0.02856310     0.35300
C2841       C  0.76653932  0.78404395  0.01722187     0.35300
C2842       C  0.72434820  0.78408414  0.01756930     0.35300
C2843       C  0.82415962  0.71583590  0.99812646    -0.22200
C2844       C  0.82376829  0.74219036  0.99539153    -0.22200
C2845       C  0.66792583  0.71507612  0.99871376    -0.22200
C2846       C  0.66762500  0.74142433  0.99592492    -0.22200
C2847       C  0.76014633  0.65176895  0.03927965    -0.23200
C2848       C  0.73324199  0.65171183  0.03911461    -0.23200
C2849       C  0.75895343  0.80898433  0.02446627    -0.23200
C2850       C  0.73212164  0.80894637  0.02506267    -0.23200
C2851       C  0.79365472  0.68316512  0.02077113    -0.18600
C2852       C  0.79239152  0.77616327  0.01133327    -0.18600
C2853       C  0.69839392  0.77626600  0.01147743    -0.18600
C2854       C  0.69953139  0.68309818  0.02085288    -0.18600
H2855       H  0.83999733  0.70341828  0.99046217     0.14300
H2856       H  0.83925083  0.75404372  0.98536478     0.14300
H2857       H  0.65221154  0.70231445  0.99144500     0.14300
H2858       H  0.65171802  0.75285059  0.98595919     0.14300
H2859       H  0.77263458  0.63558649  0.04538054     0.12600
H2860       H  0.72085400  0.63544719  0.04498815     0.12600
H2861       H  0.77142460  0.82555809  0.02823625     0.12600
H2862       H  0.71977281  0.82549506  0.02947287     0.12600
H2863       H  0.76912319  0.73059610  0.03261617     0.25900
H2864       H  0.72310858  0.73080612  0.03243186     0.25900
C2865       C  0.00031251  0.70405420  0.23028703     0.86200
C2866       C  0.52514581  0.70931365  0.25225977    -0.54000
C2867       C  0.52609676  0.73217007  0.26855045     0.09100
C2868       C  0.00111464  0.74777273  0.26249599     0.20100
C2869       C  0.97733685  0.70769814  0.25429301    -0.54700
C2870       C  0.97723686  0.73054591  0.27088829     0.09300
C2871       C  0.99881888  0.72824036  0.20821630    -0.54300
C2872       C  0.99944902  0.75126394  0.22465551     0.09800
H2873       H  0.54079893  0.69519175  0.25391017     0.14300
H2874       H  0.00138152  0.76616095  0.27613859     0.00100
H2875       H  0.96151705  0.69415792  0.25747408     0.14600
H2876       H  0.99763958  0.72710043  0.18161157     0.14400
C2877       C  0.75048204  0.54176084  0.27003709     0.86200
C2878       C  0.77362314  0.53715808  0.24636165    -0.54000
C2879       C  0.77222626  0.01447082  0.22812965     0.09100
C2880       C  0.74771414  0.99845551  0.23690059     0.20100
C2881       C  0.72603178  0.53789167  0.24822026    -0.54700
C2882       C  0.72423122  0.01658712  0.22953881     0.09300
C2883       C  0.75013882  0.01874232  0.29066381    -0.54300
C2884       C  0.74849262  0.99575085  0.27463320     0.09800
H2885       H  0.78989510  0.55010870  0.24261785     0.14300
H2886       H  0.74687763  0.97951283  0.22455485     0.00100
H2887       H  0.71106952  0.55262741  0.24588451     0.14600
H2888       H  0.75086644  0.02000110  0.31729647     0.14400
C2889       C  0.00018186  0.70574602  0.76606506     0.86200
C2890       C  0.97597945  0.70955836  0.74406073    -0.54000
C2891       C  0.97533278  0.73237505  0.72746441     0.09100
C2892       C  0.99965762  0.74939233  0.73337083     0.20100
C2893       C  0.52448949  0.71083784  0.74493268    -0.54700
C2894       C  0.52429638  0.73366064  0.72785680     0.09300
C2895       C  0.00106447  0.72991270  0.78788119    -0.54300
C2896       C  0.00058641  0.75296496  0.77122023     0.09800
H2897       H  0.96015069  0.69564170  0.74253289     0.14300
H2898       H  0.99895645  0.76741818  0.71887686     0.00100
H2899       H  0.54084681  0.69781219  0.74277283     0.14600
H2900       H  0.00134552  0.72866848  0.81452205     0.14400
C2901       C  0.74519343  0.54226030  0.72887431     0.86200
C2902       C  0.72230971  0.53748563  0.75289717    -0.54000
C2903       C  0.72202818  0.01354789  0.77114777     0.09100
C2904       C  0.74603258  0.99683542  0.76199244     0.20100
C2905       C  0.76976429  0.53804994  0.75034156    -0.54700
C2906       C  0.77035610  0.01395031  0.76821164     0.09300
C2907       C  0.74352715  0.01777921  0.70840445    -0.54300
C2908       C  0.74470102  0.99453101  0.72424906     0.09800
H2909       H  0.70643385  0.55074012  0.75732667     0.14300
H2910       H  0.74664932  0.97797759  0.77491790     0.00100
H2911       H  0.78501727  0.55247281  0.75283295     0.14600
H2912       H  0.74264221  0.01938802  0.68179122     0.14400
C2913       C  0.58850527  0.98528157  0.10378403    -0.20100
C2914       C  0.58666116  0.98254301  0.13840842     0.36100
C2915       C  0.60918659  0.98623065  0.15831624    -0.26100
C2916       C  0.63332430  0.99422287  0.14501169     0.02500
C2917       C  0.63512053  0.49342700  0.11596112     0.27300
C2918       C  0.61322593  0.48922766  0.09556487    -0.25200
N2919       N  0.56217810  0.97581524  0.15345612    -0.82600
H2920       H  0.60774141  0.98324311  0.18460441     0.13100
C2921       C  0.65644742  0.99960087  0.16722762     0.02500
N2922       N  0.65928462  0.50246930  0.10198620    -0.81200
H2923       H  0.61557500  0.49210012  0.06938675     0.18000
C2924       C  0.68067023  0.48379959  0.16575404    -0.26000
C2925       C  0.70317725  0.49016784  0.18421733     0.36000
C2926       C  0.70115240  0.01007246  0.20780766    -0.20100
C2927       C  0.67611678  0.01954799  0.21580789    -0.25300
C2928       C  0.65403352  0.01500962  0.19565389     0.27400
H2929       H  0.68267182  0.47079088  0.14517768     0.13100
N2930       N  0.72799098  0.48023110  0.17410362    -0.82600
H2931       H  0.67366556  0.03078095  0.23792559     0.18000
N2932       N  0.62926307  0.02648202  0.20371380    -0.81200
H2933       H  0.73131128  0.48607669  0.14985678     0.33600
H2934       H  0.72693078  0.46013542  0.17454056     0.38100
H2935       H  0.63070058  0.03712490  0.22539445     0.33600
H2936       H  0.62453771  0.03953675  0.18497577     0.30300
H2937       H  0.65769457  0.50426886  0.07644767     0.33600
H2938       H  0.66270927  0.52096127  0.11106675     0.30300
H2939       H  0.54977715  0.99172929  0.15110015     0.38100
H2940       H  0.56465171  0.97287075  0.17872233     0.33600
C2941       C  0.90647695  0.98203354  0.10570385    -0.20100
C2942       C  0.90934187  0.98655470  0.13991548     0.36100
C2943       C  0.88675349  0.98947365  0.15968353    -0.26100
C2944       C  0.86141076  0.98856676  0.14603871     0.02500
C2945       C  0.85851445  0.98362841  0.11227067     0.27300
C2946       C  0.88082382  0.98029267  0.09269299    -0.25200
N2947       N  0.93505648  0.49117621  0.15382623    -0.82600
H2948       H  0.88916320  0.49469499  0.18547647     0.13100
C2949       C  0.83795037  0.99421773  0.16665413     0.02500
N2950       N  0.83277968  0.98224776  0.09787555    -0.81200
H2951       H  0.87789852  0.97661385  0.06676313     0.18000
C2952       C  0.82271547  0.51654531  0.16060771    -0.26000
C2953       C  0.80084372  0.52262676  0.18012110     0.36000
C2954       C  0.79323913  0.00644288  0.20483024    -0.20100
C2955       C  0.80721852  0.98355958  0.21055486    -0.25300
C2956       C  0.82958091  0.97733480  0.19178548     0.27400
H2957       H  0.82800112  0.52907799  0.14033414     0.13100
N2958       N  0.78546252  0.54515670  0.17295064    -0.82600
H2959       H  0.80119990  0.97097801  0.23044427     0.18000
N2960       N  0.84394720  0.95407062  0.19826484    -0.81200
H2961       H  0.79295356  0.55493642  0.15253861     0.33600
H2962       H  0.76664498  0.53900495  0.16647165     0.38100
H2963       H  0.83538477  0.94381050  0.21759475     0.33600
H2964       H  0.84241257  0.94247592  0.17740873     0.30300
H2965       H  0.83391656  0.97879628  0.07261935     0.33600
H2966       H  0.82326249  0.96638322  0.10825498     0.30300
H2967       H  0.94304315  0.50802837  0.14392989     0.38100
H2968       H  0.93371315  0.49417471  0.17916086     0.33600
C2969       C  0.99796922  0.77673426  0.20687596    -0.20100
C2970       C  0.51415677  0.79971081  0.21735452     0.36100
C2971       C  0.51282048  0.82303286  0.19942449    -0.26100
C2972       C  0.99626749  0.82304149  0.16924799     0.02500
C2973       C  0.98088612  0.80178074  0.15993328     0.27300
C2974       C  0.98173979  0.77901377  0.17887327    -0.25200
N2975       N  0.53163650  0.79760027  0.24499275    -0.82600
H2976       H  0.52476487  0.83924743  0.20683760     0.13100
C2977       C  0.99720929  0.84672584  0.14844907     0.02500
N2978       N  0.96483095  0.80326223  0.13086280    -0.81200
H2979       H  0.96966924  0.76287434  0.17156878     0.18000
C2980       C  0.51321993  0.84790726  0.12095222    -0.26000
C2981       C  0.51461059  0.86920833  0.09956614     0.36000
C2982       C  0.99837484  0.89024965  0.10604845    -0.20100
C2983       C  0.98252579  0.89014274  0.13424837    -0.25300
C2984       C  0.98164760  0.86847122  0.15537711     0.27400
H2985       H  0.52328947  0.83024022  0.11471651     0.13100
N2986       N  0.53009235  0.86771403  0.07016360    -0.82600
H2987       H  0.97013483  0.90660275  0.13914805     0.18000
N2988       N  0.96483372  0.86829904  0.18361485    -0.81200
H2989       H  0.53891799  0.84963355  0.06815501     0.33600
H2990       H  0.54529434  0.88109271  0.07230912     0.38100
H2991       H  0.95471357  0.88572837  0.18536409     0.33600
H2992       H  0.95071612  0.85400687  0.18001517     0.30300
H2993       H  0.95497583  0.78589079  0.12704965     0.33600
H2994       H  0.95046352  0.81722296  0.13487805     0.30300
H2995       H  0.54628565  0.78450650  0.23873676     0.38100
H2996       H  0.54101498  0.81512795  0.24944535     0.33600
C2997       C  0.00147157  0.67854732  0.21074753    -0.20100
C2998       C  0.52259822  0.67573482  0.18844043     0.36100
C2999       C  0.52381861  0.65274912  0.17038675    -0.26100
C3000       C  0.00381049  0.63209581  0.17347540     0.02500
C3001       C  0.98484214  0.63500114  0.19816878     0.27300
C3002       C  0.98395115  0.65791298  0.21660520    -0.25200
N3003       N  0.54215619  0.69505822  0.18313848    -0.82600
H3004       H  0.53941496  0.65020547  0.15270471     0.13100
C3005       C  0.00329339  0.60952455  0.15086603     0.02500
N3006       N  0.96619879  0.61477564  0.20406610    -0.81200
H3007       H  0.96937746  0.65899534  0.23551916     0.18000
C3008       C  0.50628063  0.58568916  0.16394933    -0.26000
C3009       C  0.50491631  0.56408533  0.14299322     0.36000
C3010       C  0.00089210  0.56645745  0.10777253    -0.20100
C3011       C  0.99558116  0.59165189  0.09653517    -0.25300
C3012       C  0.99649336  0.61297615  0.11759705     0.27400
H3013       H  0.50858874  0.58288294  0.19021187     0.13100
N3014       N  0.50670952  0.53860768  0.15672908    -0.82600
H3015       H  0.99018186  0.59487647  0.07108222     0.18000
N3016       N  0.99000859  0.63822053  0.10542352    -0.81200
H3017       H  0.50777044  0.53933060  0.18238118     0.33600
H3018       H  0.52441127  0.53065514  0.14887534     0.38100
H3019       H  0.98554037  0.63763171  0.08033532     0.33600
H3020       H  0.97295990  0.64417125  0.11735351     0.30300
H3021       H  0.95352663  0.61970711  0.22314695     0.33600
H3022       H  0.95462397  0.61295451  0.18293878     0.30300
H3023       H  0.54172765  0.70026615  0.15828577     0.38100
H3024       H  0.56048057  0.68697490  0.18829165     0.33600
C3025       C  0.58219386  0.89464354  0.99537943    -0.20100
C3026       C  0.57650878  0.86958439  0.98367890     0.36100
C3027       C  0.59558879  0.85031004  0.98642496    -0.26100
C3028       C  0.62023009  0.85570538  0.99976954     0.02500
C3029       C  0.62630330  0.88070491  0.01045959     0.27300
C3030       C  0.60721205  0.90000234  0.00809223    -0.25200
N3031       N  0.55158426  0.86381265  0.96879909    -0.82600
H3032       H  0.59137098  0.83101092  0.97790728     0.13100
C3033       C  0.63960702  0.83489873  0.00237679     0.02500
N3034       N  0.65170840  0.88622102  0.02407799    -0.81200
H3035       H  0.61167939  0.91910132  0.01708902     0.18000
C3036       C  0.66098800  0.83492684  0.98100413    -0.26000
C3037       C  0.67995190  0.81556686  0.98297575     0.36000
C3038       C  0.67786791  0.79629626  0.00735800    -0.20100
C3039       C  0.65622022  0.79617111  0.02849949    -0.25300
C3040       C  0.63684942  0.81522099  0.02600681     0.27400
H3041       H  0.66283396  0.84995605  0.96259401     0.13100
N3042       N  0.70127348  0.81546495  0.96019475    -0.82600
H3043       H  0.65459674  0.78126571  0.04709385     0.18000
N3044       N  0.61448829  0.81480554  0.04736243    -0.81200
H3045       H  0.71131098  0.83290964  0.96245811     0.33600
H3046       H  0.69347251  0.81460235  0.93642465     0.38100
H3047       H  0.61530151  0.79886824  0.06311539     0.33600
H3048       H  0.61544085  0.83114463  0.06221589     0.30300
H3049       H  0.65307169  0.90560938  0.03062255     0.33600
H3050       H  0.65366840  0.87556455  0.04581342     0.30300
H3051       H  0.55015409  0.87457827  0.94708290     0.38100
H3052       H  0.55059136  0.84445930  0.96198397     0.33600
C3053       C  0.90830588  0.89399660  0.00105681    -0.20100
C3054       C  0.88336663  0.89890703  0.01478159     0.36100
C3055       C  0.86466278  0.87918395  0.01539326    -0.26100
C3056       C  0.87051667  0.85482191  0.00299201     0.02500
C3057       C  0.89527349  0.84968915  0.98967082     0.27300
C3058       C  0.91399075  0.86934291  0.98888977    -0.25200
N3059       N  0.87731250  0.92355596  0.02878952    -0.82600
H3060       H  0.84553548  0.88264593  0.02596114     0.13100
C3061       C  0.85072950  0.83450491  0.00515650     0.02500
N3062       N  0.90124760  0.82452234  0.97718914    -0.81200
H3063       H  0.93313746  0.86532561  0.97887433     0.18000
C3064       C  0.83642915  0.82795691  0.97696873    -0.26000
C3065       C  0.81717766  0.80879910  0.97838223     0.36000
C3066       C  0.81264075  0.79612154  0.00847075    -0.20100
C3067       C  0.82710464  0.80251078  0.03653468    -0.25300
C3068       C  0.84627905  0.82167997  0.03514758     0.27400
H3069       H  0.84022607  0.83793553  0.95402838     0.13100
N3070       N  0.80248359  0.80188333  0.94952047    -0.82600
H3071       H  0.82331715  0.79252503  0.05947464     0.18000
N3072       N  0.86125724  0.82824242  0.06391396    -0.81200
H3073       H  0.80864819  0.81273222  0.92927581     0.33600
H3074       H  0.78291370  0.80681130  0.95358095     0.38100
H3075       H  0.85536561  0.81709468  0.08402570     0.33600
H3076       H  0.88079129  0.82343747  0.05935635     0.30300
H3077       H  0.92030993  0.82399460  0.96792666     0.33600
H3078       H  0.90075288  0.81161373  0.99696719     0.30300
H3079       H  0.88941880  0.92600298  0.04933853     0.38100
H3080       H  0.85804820  0.92395009  0.03739856     0.33600
C3081       C  0.90883219  0.56425043  0.99967385    -0.20100
C3082       C  0.88322636  0.55883325  0.01116028     0.36100
C3083       C  0.86471053  0.57874468  0.01256821    -0.26100
C3084       C  0.87125877  0.60386702  0.00329076     0.02500
C3085       C  0.89639191  0.60931250  0.99115165     0.27300
C3086       C  0.91496867  0.58946109  0.98947588    -0.25200
N3087       N  0.87621348  0.53342718  0.02220074    -0.82600
H3088       H  0.84522181  0.57485441  0.02180763     0.13100
C3089       C  0.85161373  0.62439144  0.00720628     0.02500
N3090       N  0.90288663  0.63498914  0.98071182    -0.81200
H3091       H  0.93434026  0.59375001  0.98016610     0.18000
C3092       C  0.85496564  0.64257023  0.03223455    -0.26000
C3093       C  0.83607887  0.66173672  0.03753377     0.36000
C3094       C  0.81364597  0.66263702  0.01721755    -0.20100
C3095       C  0.81048980  0.64454667  0.99202546    -0.25300
C3096       C  0.82932775  0.62539779  0.98678384     0.27400
H3097       H  0.87221010  0.64157183  0.04782000     0.13100
N3098       N  0.83958633  0.68037557  0.06317526    -0.82600
H3099       H  0.79337622  0.64561585  0.97622312     0.18000
N3100       N  0.82608524  0.60705417  0.96074399    -0.81200
H3101       H  0.85723158  0.67715581  0.07567670     0.33600
H3102       H  0.82458953  0.67764222  0.08025250     0.38100
H3103       H  0.80855515  0.61040108  0.94804336     0.33600
H3104       H  0.84121747  0.61005115  0.94391726     0.30300
H3105       H  0.92223461  0.63581206  0.97245249     0.33600
H3106       H  0.89098049  0.63950034  0.96051321     0.30300
H3107       H  0.88705001  0.52952968  0.04352008     0.38100
H3108       H  0.85648910  0.53268706  0.02895147     0.33600
C3109       C  0.58217263  0.56616263  0.00813932    -0.20100
C3110       C  0.60361909  0.56361180  0.02991158     0.36100
C3111       C  0.62189961  0.58362920  0.03225208    -0.26100
C3112       C  0.61882400  0.60624920  0.01382888     0.02500
C3113       C  0.59700578  0.60923396  0.99285944     0.27300
C3114       C  0.57887034  0.58909069  0.99016970    -0.25200
N3115       N  0.60646398  0.54100649  0.05004847    -0.82600
H3116       H  0.63869900  0.58160756  0.04844221     0.13100
C3117       C  0.63918001  0.62626018  0.01600767     0.02500
N3118       N  0.59342552  0.63267634  0.97446818    -0.81200
H3119       H  0.56218373  0.59120671  0.97381476     0.18000
C3120       C  0.65375857  0.63221066  0.98787028    -0.26000
C3121       C  0.67399840  0.65035807  0.98916625     0.36000
C3122       C  0.67945529  0.66274837  0.01911590    -0.20100
C3123       C  0.66492187  0.65688776  0.04725414    -0.25300
C3124       C  0.64470373  0.63866940  0.04599908     0.27400
H3125       H  0.64946664  0.62244810  0.96498702     0.13100
N3126       N  0.68872300  0.65669028  0.96019594    -0.82600
H3127       H  0.66923198  0.66677403  0.07004172     0.18000
N3128       N  0.62961947  0.63283604  0.07484201    -0.81200
H3129       H  0.68187498  0.64621136  0.94003384     0.33600
H3130       H  0.70807897  0.65088283  0.96426383     0.38100
H3131       H  0.63628172  0.64358107  0.09487231     0.33600
H3132       H  0.61033593  0.63865840  0.07026535     0.30300
H3133       H  0.57641917  0.63172390  0.96010853     0.33600
H3134       H  0.59057321  0.64752596  0.99133699     0.30300
H3135       H  0.59060236  0.54046647  0.06621602     0.38100
H3136       H  0.62333069  0.54225948  0.06462317     0.33600
C3137       C  0.90658037  0.98838474  0.89097114    -0.20100
C3138       C  0.88546705  0.50506331  0.89852272     0.36100
C3139       C  0.86362234  0.50670008  0.87726724    -0.26100
C3140       C  0.86246930  0.99196303  0.84836727     0.02500
C3141       C  0.88357631  0.97546654  0.84058898     0.27300
C3142       C  0.90540749  0.97384172  0.86198269    -0.25200
N3143       N  0.88680216  0.52110282  0.92721778    -0.82600
H3144       H  0.84785239  0.51991653  0.88286696     0.13100
C3145       C  0.83877930  0.99442691  0.82675330     0.02500
N3146       N  0.88258178  0.96015615  0.81128921    -0.81200
H3147       H  0.92118528  0.96060022  0.85653916     0.18000
C3148       C  0.84161034  0.00328087  0.79434737    -0.26000
C3149       C  0.81961042  0.00873153  0.77445018     0.36000
C3150       C  0.79406574  0.00561671  0.78732611    -0.20100
C3151       C  0.79129728  0.49512248  0.81660098    -0.25300
C3152       C  0.81298888  0.48946702  0.83714567     0.27400
H3153       H  0.86110498  0.00666391  0.78484032     0.13100
N3154       N  0.82313522  0.01757312  0.74122217    -0.82600
H3155       H  0.77162946  0.49149883  0.82537367     0.18000
N3156       N  0.80905124  0.47834186  0.86914295    -0.81200
H3157       H  0.84304472  0.01881025  0.73551873     0.33600
H3158       H  0.81510255  0.00373209  0.72558074     0.38100
H3159       H  0.78909438  0.47546596  0.87349293     0.33600
H3160       H  0.81777001  0.46013266  0.86919620     0.30300
H3161       H  0.89963573  0.94916799  0.80903473     0.33600
H3162       H  0.86707173  0.94717808  0.81379549     0.30300
H3163       H  0.90263091  0.53365017  0.92422203     0.38100
H3164       H  0.87005826  0.53259285  0.92905608     0.33600
C3165       C  0.69955808  0.00528186  0.79236733    -0.20100
C3166       C  0.68403723  0.98363454  0.78445047     0.36100
C3167       C  0.66102646  0.97842650  0.80258411    -0.26100
C3168       C  0.65599790  0.49570053  0.83030824     0.02500
C3169       C  0.66963075  0.51913929  0.83391521     0.27300
C3170       C  0.69195518  0.52410115  0.81462424    -0.25200
N3171       N  0.69116104  0.96753233  0.75731612    -0.82600
H3172       H  0.64906955  0.96191189  0.79640160     0.13100
C3173       C  0.63281474  0.48970856  0.85150918     0.02500
N3174       N  0.66051865  0.53797871  0.85697764    -0.81200
H3175       H  0.70218677  0.54222245  0.81747743     0.18000
C3176       C  0.63692570  0.48477081  0.88493580    -0.26000
C3177       C  0.61590841  0.48081796  0.90660559     0.36000
C3178       C  0.58466306  0.98078920  0.88906697    -0.20100
C3179       C  0.58194763  0.99338349  0.85850398    -0.25300
C3180       C  0.60382409  0.99745945  0.83775228     0.27400
H3181       H  0.65678474  0.48418335  0.89446205     0.13100
N3182       N  0.62179730  0.47539707  0.94041729    -0.82600
H3183       H  0.56302804  0.00114379  0.85148689     0.18000
N3184       N  0.60084236  0.01114385  0.80719235    -0.81200
H3185       H  0.63276353  0.49070531  0.94981148     0.33600
H3186       H  0.63339710  0.45882149  0.94147817     0.38100
H3187       H  0.58125192  0.01628108  0.80342757     0.33600
H3188       H  0.61138860  0.02831713  0.80905318     0.30300
H3189       H  0.67266689  0.55417133  0.85677841     0.33600
H3190       H  0.64205156  0.54418359  0.84903493     0.30300
H3191       H  0.68930961  0.97859742  0.73591297     0.38100
H3192       H  0.67797307  0.95226507  0.75494189     0.33600
C3193       C  0.99879471  0.68038227  0.78619616    -0.20100
C3194       C  0.97789119  0.67620434  0.80848636     0.36100
C3195       C  0.97675869  0.65354650  0.82749041    -0.26100
C3196       C  0.49771552  0.63533875  0.82760955     0.02500
C3197       C  0.51895875  0.63967543  0.80633718     0.27300
C3198       C  0.51970881  0.66221947  0.78683429    -0.25200
N3199       N  0.95770374  0.69511581  0.81214687    -0.82600
H3200       H  0.96079467  0.65096154  0.84466661     0.13100
C3201       C  0.99546999  0.61185033  0.84774843     0.02500
N3202       N  0.54004549  0.62135420  0.80512126    -0.81200
H3203       H  0.53636220  0.66462547  0.77107064     0.18000
C3204       C  0.99192529  0.58690393  0.83534999    -0.26000
C3205       C  0.99134016  0.56518317  0.85642232     0.36000
C3206       C  0.99503446  0.56842403  0.89077576    -0.20100
C3207       C  0.49783530  0.59395725  0.90511045    -0.25300
C3208       C  0.49827060  0.61567026  0.88438352     0.27400
H3209       H  0.98923669  0.58444477  0.80911755     0.13100
N3210       N  0.98675896  0.54006194  0.84293071    -0.82600
H3211       H  0.49902677  0.59703436  0.93137800     0.18000
N3212       N  0.50036122  0.64105346  0.89808761    -0.81200
H3213       H  0.98524114  0.54100856  0.81731435     0.33600
H3214       H  0.96853964  0.53378618  0.85144812     0.38100
H3215       H  0.50085234  0.64021582  0.92376724     0.33600
H3216       H  0.51831843  0.64875108  0.89066546     0.30300
H3217       H  0.55421177  0.62713365  0.78814546     0.33600
H3218       H  0.54920276  0.62121789  0.82816400     0.30300
H3219       H  0.93974281  0.68645195  0.80664362     0.38100
H3220       H  0.95734335  0.70081677  0.83675323     0.33600
C3221       C  0.99280852  0.89143387  0.88931084    -0.20100
C3222       C  0.97708835  0.86938605  0.89468109     0.36100
C3223       C  0.97913135  0.84811103  0.87348298    -0.26100
C3224       C  0.49932437  0.84915942  0.84704708     0.02500
C3225       C  0.50930406  0.87342520  0.83769217     0.27300
C3226       C  0.50770085  0.89436399  0.85977386    -0.25200
N3227       N  0.95894892  0.86874300  0.92157910    -0.82600
H3228       H  0.96755982  0.83101106  0.87814327     0.13100
C3229       C  0.50141923  0.82597480  0.82570835     0.02500
N3230       N  0.52117741  0.87662862  0.80598516    -0.81200
H3231       H  0.51597005  0.91279049  0.85285426     0.18000
C3232       C  0.98537904  0.82284357  0.79599205    -0.26000
C3233       C  0.98589523  0.79991645  0.77754682     0.36000
C3234       C  0.00052301  0.77845057  0.78886853    -0.20100
C3235       C  0.51877123  0.78299193  0.81579294    -0.25300
C3236       C  0.51940854  0.80623211  0.83346364     0.27400
H3237       H  0.97376105  0.83895705  0.78726509     0.13100
N3238       N  0.97050175  0.79832342  0.74815859    -0.82600
H3239       H  0.53256527  0.76786082  0.82197467     0.18000
N3240       N  0.53799134  0.80976518  0.85969116    -0.81200
H3241       H  0.95097426  0.80200180  0.75417606     0.33600
H3242       H  0.97677116  0.81278162  0.73206359     0.38100
H3243       H  0.54965514  0.79336410  0.86261276     0.33600
H3244       H  0.55053442  0.82471918  0.85277244     0.30300
H3245       H  0.52737904  0.89563710  0.80271912     0.33600
H3246       H  0.53799104  0.86514893  0.80548561     0.30300
H3247       H  0.94499268  0.88313535  0.91736968     0.38100
H3248       H  0.94877142  0.85128849  0.92200338     0.33600
C3249       C  0.83899562  0.76764078  0.60884967    -0.20100
C3250       C  0.86186740  0.78275650  0.60580928     0.36100
C3251       C  0.88357790  0.77770147  0.62631629    -0.26100
C3252       C  0.88312936  0.75756151  0.64943442     0.02500
C3253       C  0.86009829  0.74271534  0.65282439     0.27300
C3254       C  0.83807654  0.74829559  0.63301053    -0.25200
N3255       N  0.86306739  0.80291954  0.58153201    -0.82600
H3256       H  0.90115150  0.78922676  0.62389448     0.13100
C3257       C  0.90714893  0.75181071  0.66924887     0.02500
N3258       N  0.85958791  0.72128789  0.67528274    -0.81200
H3259       H  0.82071354  0.73640017  0.63495882     0.18000
C3260       C  0.90611986  0.75297073  0.70369265    -0.26000
C3261       C  0.92823538  0.74705457  0.72315865     0.36000
C3262       C  0.95205408  0.74035297  0.70781127    -0.20100
C3263       C  0.95327708  0.73970150  0.67343993    -0.25300
C3264       C  0.93097320  0.74498151  0.65398602     0.27400
H3265       H  0.88790591  0.75833940  0.71540155     0.13100
N3266       N  0.92669700  0.74820093  0.75840905    -0.82600
H3267       H  0.97149667  0.73424803  0.66181106     0.18000
N3268       N  0.93222551  0.74282275  0.61881744    -0.81200
H3269       H  0.90814596  0.75444985  0.76569265     0.33600
H3270       H  0.92876074  0.72948103  0.76751436     0.38100
H3271       H  0.95108787  0.73761013  0.61146902     0.33600
H3272       H  0.91981967  0.72777492  0.61186464     0.30300
H3273       H  0.84130873  0.71222544  0.67466889     0.33600
H3274       H  0.87321205  0.70777636  0.66701807     0.30300
H3275       H  0.84911357  0.81677849  0.58775853     0.38100
H3276       H  0.88130089  0.81206006  0.58219712     0.33600
C3277       C  0.66163148  0.76510263  0.60770975    -0.20100
C3278       C  0.66312087  0.74919450  0.63603848     0.36100
C3279       C  0.64072646  0.74592755  0.65600676    -0.26100
C3280       C  0.61692852  0.75845125  0.64872430     0.02500
C3281       C  0.61587197  0.77525682  0.62140085     0.27300
C3282       C  0.63809217  0.77831993  0.60125210    -0.25200
N3283       N  0.68678999  0.73530340  0.64350693    -0.82600
H3284       H  0.64165513  0.73314031  0.67709248     0.13100
C3285       C  0.59283447  0.75243729  0.66841886     0.02500
N3286       N  0.59194445  0.78854986  0.61356017    -0.81200
H3287       H  0.63684133  0.79073697  0.57983112     0.18000
C3288       C  0.57986126  0.77188533  0.68594838    -0.26000
C3289       C  0.55730154  0.76656365  0.70498844     0.36000
C3290       C  0.54692356  0.74126336  0.70595091    -0.20100
C3291       C  0.55964387  0.72208772  0.68747708    -0.25300
C3292       C  0.58242201  0.72730767  0.66911854     0.27400
H3293       H  0.58781022  0.79120803  0.68544657     0.13100
N3294       N  0.54562138  0.78662073  0.72418351    -0.82600
H3295       H  0.55180780  0.70272980  0.68739364     0.18000
N3296       N  0.59504290  0.70711018  0.65104886    -0.81200
H3297       H  0.55527473  0.80410464  0.72032769     0.33600
H3298       H  0.54842783  0.78186042  0.74893821     0.38100
H3299       H  0.58516087  0.68966799  0.65424122     0.33600
H3300       H  0.59370003  0.71174637  0.62606183     0.30300
H3301       H  0.59440721  0.80031199  0.59288474     0.33600
H3302       H  0.57797315  0.77471276  0.60721372     0.30300
H3303       H  0.70087871  0.74873754  0.65076398     0.38100
H3304       H  0.68401720  0.72310177  0.66370088     0.33600
C3305       C  0.74571740  0.56818459  0.70980837    -0.20100
C3306       C  0.76701652  0.57421306  0.68882064     0.36100
C3307       C  0.76748126  0.59754385  0.67107043    -0.26100
C3308       C  0.74695299  0.61539217  0.67319353     0.02500
C3309       C  0.72566224  0.60976441  0.69399974     0.27300
C3310       C  0.72521919  0.58644122  0.71188593    -0.25200
N3311       N  0.78827743  0.55647927  0.68511993    -0.82600
H3312       H  0.78378538  0.60143173  0.65482180     0.13100
C3313       C  0.74720978  0.63909223  0.65206550     0.02500
N3314       N  0.70441163  0.62779558  0.69681854    -0.81200
H3315       H  0.70834455  0.58293967  0.72692937     0.18000
C3316       C  0.72622162  0.64360678  0.63030677    -0.26000
C3317       C  0.72606442  0.66496316  0.60891056     0.36000
C3318       C  0.74738608  0.68220404  0.60904787    -0.20100
C3319       C  0.76816272  0.67814756  0.63114898    -0.25300
C3320       C  0.76832162  0.65673918  0.65265979     0.27400
H3321       H  0.71008471  0.63008752  0.62956450     0.13100
N3322       N  0.70443467  0.66913960  0.58674278    -0.82600
H3323       H  0.78460309  0.69133606  0.63099463     0.18000
N3324       N  0.78987216  0.65278143  0.67495528    -0.81200
H3325       H  0.69032235  0.65473675  0.58959360     0.33600
H3326       H  0.69546393  0.68645473  0.59330972     0.38100
H3327       H  0.80390500  0.66725872  0.67205815     0.33600
H3328       H  0.78262656  0.65446249  0.69884581     0.30300
H3329       H  0.69006061  0.62083910  0.71280860     0.33600
H3330       H  0.71189472  0.64457271  0.70738008     0.30300
H3331       H  0.80557920  0.56582411  0.69197404     0.38100
H3332       H  0.78967186  0.55168091  0.66026048     0.33600
C3333       C  0.74515247  0.96966054  0.70608984    -0.20100
C3334       C  0.76489338  0.95113680  0.71167691     0.36100
C3335       C  0.76567406  0.92866837  0.69245145    -0.26100
C3336       C  0.74684485  0.92421961  0.66787965     0.02500
C3337       C  0.72665254  0.94236183  0.66283709     0.27300
C3338       C  0.72614714  0.96498010  0.68177227    -0.25200
N3339       N  0.78475637  0.95550609  0.73596598    -0.82600
H3340       H  0.78127823  0.91483474  0.69636100     0.13100
C3341       C  0.74900016  0.90116024  0.64645931    -0.00700
N3342       N  0.70670235  0.93767241  0.63854882    -0.81200
H3343       H  0.71084844  0.97908009  0.67753502     0.18000
C3344       C  0.73563526  0.87847037  0.65476496    -0.26000
C3345       C  0.73592684  0.85684787  0.63382642     0.36000
C3346       C  0.75017702  0.85786160  0.60407080    -0.20100
C3347       C  0.76368263  0.88066410  0.59609714    -0.25300
C3348       C  0.76326298  0.90223723  0.61691742     0.27400
H3349       H  0.72447011  0.87786175  0.67734389     0.13100
N3350       N  0.72113153  0.83424853  0.64221321    -0.82600
H3351       H  0.77462544  0.88168848  0.57340984     0.18000
N3352       N  0.77733040  0.92524329  0.60823551    -0.81200
H3353       H  0.71186071  0.83658923  0.66487075     0.33600
H3354       H  0.70625784  0.83226161  0.62465181     0.38100
H3355       H  0.78714544  0.92281213  0.58595742     0.33600
H3356       H  0.76363454  0.93991170  0.60437105     0.30300
H3357       H  0.69299371  0.95262387  0.63830017     0.33600
H3358       H  0.71561295  0.93777119  0.61547123     0.30300
H3359       H  0.78424415  0.94028382  0.75283628     0.38100
H3360       H  0.80296258  0.95518503  0.72431373     0.33600
C3361       C  0.83782566  0.68295076  0.50978270    -0.20100
C3362       C  0.83190580  0.65858839  0.52360033     0.36100
C3363       C  0.85158335  0.64000036  0.52659621    -0.26100
C3364       C  0.87699565  0.64512221  0.51586630     0.02500
C3365       C  0.88327180  0.66932607  0.50247425     0.27300
C3366       C  0.86363102  0.68812643  0.49972719    -0.25200
N3367       N  0.80604651  0.65258603  0.53484482    -0.82600
H3368       H  0.84688899  0.62125810  0.53679479     0.13100
C3369       C  0.89633033  0.62422238  0.51671472     0.02500
N3370       N  0.90940707  0.67444607  0.49118135    -0.81200
H3371       H  0.86840348  0.70667746  0.48907624     0.18000
C3372       C  0.90085504  0.61042514  0.48782365    -0.26000
C3373       C  0.91857317  0.58986547  0.48757427     0.36000
C3374       C  0.93195137  0.58331978  0.51674321    -0.20100
C3375       C  0.92733546  0.59701629  0.54573750    -0.25300
C3376       C  0.90952234  0.61756332  0.54599630     0.27400
H3377       H  0.89046785  0.61573376  0.46550943     0.13100
N3378       N  0.92364504  0.57604117  0.45774848    -0.82600
H3379       H  0.93803688  0.59193047  0.56789748     0.18000
N3380       N  0.90486568  0.63179240  0.57561740    -0.81200
H3381       H  0.91279153  0.58383185  0.43824929     0.33600
H3382       H  0.91696517  0.55720034  0.46108858     0.38100
H3383       H  0.91605800  0.62429747  0.59500674     0.33600
H3384       H  0.91142156  0.65061150  0.57170147     0.30300
H3385       H  0.91073181  0.69311097  0.48162945     0.33600
H3386       H  0.92188334  0.67369127  0.51161070     0.30300
H3387       H  0.79940678  0.63645219  0.52199852     0.38100
H3388       H  0.80717512  0.64771734  0.55977953     0.33600
C3389       C  0.56622194  0.58566981  0.50339653    -0.20100
C3390       C  0.57540863  0.59689908  0.53266461     0.36100
C3391       C  0.59474237  0.61598795  0.53093064    -0.26100
C3392       C  0.60462086  0.62405001  0.50047092     0.02500
C3393       C  0.59500780  0.61312218  0.47117468     0.27300
C3394       C  0.57593597  0.59379207  0.47295528    -0.25200
N3395       N  0.56536443  0.58849514  0.56387679    -0.82600
H3396       H  0.60225293  0.62455543  0.55330494     0.13100
C3397       C  0.62509542  0.64400125  0.49964810     0.02500
N3398       N  0.60456677  0.62185056  0.43986750    -0.81200
H3399       H  0.56847364  0.58508961  0.45064205     0.18000
C3400       C  0.65011347  0.63760762  0.48836138    -0.26000
C3401       C  0.67014813  0.65607554  0.48725779     0.36000
C3402       C  0.66502586  0.68137836  0.49848934    -0.20100
C3403       C  0.63977550  0.68757316  0.50963981    -0.25300
C3404       C  0.61970946  0.66920994  0.51000267     0.27400
H3405       H  0.65391291  0.61813664  0.48020540     0.13100
N3406       N  0.69538559  0.64924551  0.47433825    -0.82600
H3407       H  0.63561131  0.70684111  0.51822113     0.18000
N3408       N  0.59380397  0.67604896  0.52059605    -0.81200
H3409       H  0.69588338  0.62980605  0.46783406     0.33600
H3410       H  0.69806763  0.65972680  0.45260739     0.38100
H3411       H  0.59310791  0.69538214  0.52754314     0.33600
H3412       H  0.58125114  0.67416545  0.50037059     0.30300
H3413       H  0.59550923  0.61176907  0.42076014     0.33600
H3414       H  0.59907111  0.64112638  0.43710083     0.30300
H3415       H  0.54552364  0.59342815  0.56466786     0.38100
H3416       H  0.57451256  0.59842148  0.58304766     0.33600
C3417       C  0.57170782  0.95435330  0.47857638    -0.20100
C3418       C  0.58542370  0.94529265  0.45077494     0.36100
C3419       C  0.60360128  0.92535856  0.45479433    -0.26100
C3420       C  0.60823987  0.91438864  0.48578423     0.02500
C3421       C  0.59460593  0.92333336  0.51344300     0.27300
C3422       C  0.57650972  0.94341807  0.50959819    -0.25200
N3423       N  0.58093611  0.95529157  0.41820058    -0.82600
H3424       H  0.61408015  0.91824372  0.43357145     0.13100
C3425       C  0.62734560  0.89333357  0.48904808     0.02500
N3426       N  0.59894433  0.91164334  0.54510541    -0.81200
H3427       H  0.56564699  0.95024271  0.53066701     0.18000
C3428       C  0.65140512  0.89828806  0.50426765    -0.26000
C3429       C  0.67006041  0.87872900  0.50827242     0.36000
C3430       C  0.66450977  0.85375071  0.49622809    -0.20100
C3431       C  0.64003314  0.84880262  0.48166949    -0.25300
C3432       C  0.62136400  0.86841644  0.47796364     0.27400
H3433       H  0.65554959  0.91751116  0.51311241     0.13100
N3434       N  0.69444979  0.88414516  0.52470161    -0.82600
H3435       H  0.63564633  0.82973649  0.47250779     0.18000
N3436       N  0.59641832  0.86325379  0.46286305    -0.81200
H3437       H  0.69487865  0.87335639  0.54646047     0.33600
H3438       H  0.69545649  0.90348451  0.53157507     0.38100
H3439       H  0.59516258  0.84395520  0.45587278     0.33600
H3440       H  0.58198766  0.86613256  0.48063282     0.30300
H3441       H  0.58730726  0.92044257  0.56290549     0.33600
H3442       H  0.59274628  0.89250237  0.54366601     0.30300
H3443       H  0.56693358  0.96991768  0.41798851     0.38100
H3444       H  0.59842844  0.96361849  0.41018499     0.33600
C3445       C  0.83740982  0.85418363  0.49247076    -0.20100
C3446       C  0.83152294  0.88089115  0.49323543     0.36100
C3447       C  0.85147574  0.89885084  0.48710354    -0.26100
C3448       C  0.87717680  0.89087396  0.48102239     0.02500
C3449       C  0.88337554  0.86451463  0.48143849     0.27300
C3450       C  0.86348862  0.84647144  0.48708868    -0.25200
N3451       N  0.80551728  0.88982614  0.50040776    -0.82600
H3452       H  0.84708453  0.91925573  0.48747893     0.13100
C3453       C  0.89762906  0.91041179  0.47511134     0.02500
N3454       N  0.90982779  0.85619902  0.47571528    -0.81200
H3455       H  0.86844807  0.82621627  0.48660527     0.18000
C3456       C  0.91837693  0.91244883  0.49755277    -0.26000
C3457       C  0.93764403  0.93127889  0.49387125     0.36000
C3458       C  0.93650571  0.94810547  0.46640747    -0.20100
C3459       C  0.91591243  0.94582502  0.44361542    -0.25300
C3460       C  0.89630782  0.92716298  0.44781402     0.27400
H3461       H  0.91914052  0.89975661  0.51875604     0.13100
N3462       N  0.95726925  0.93332329  0.51920045    -0.82600
H3463       H  0.91497114  0.95894247  0.42285353     0.18000
N3464       N  0.87502434  0.92518702  0.42469960    -0.81200
H3465       H  0.96926671  0.91706718  0.51771408     0.33600
H3466       H  0.96921671  0.94941441  0.51621526     0.38100
H3467       H  0.87687807  0.93902295  0.40611639     0.33600
H3468       H  0.87639485  0.90722347  0.41336723     0.30300
H3469       H  0.91118715  0.83614703  0.47704641     0.33600
H3470       H  0.91473028  0.86142805  0.45167034     0.30300
H3471       H  0.80158708  0.88490287  0.52482466     0.38100
H3472       H  0.80451851  0.90990125  0.49905065     0.33600
C3473       C  0.54992743  0.73975759  0.28780327    -0.20100
C3474       C  0.57524869  0.73843828  0.27379979     0.36100
C3475       C  0.59751843  0.74347337  0.29339542    -0.26100
C3476       C  0.59522058  0.74952198  0.32688731     0.02500
C3477       C  0.56990832  0.75090645  0.34079620     0.27300
C3478       C  0.54763460  0.74626879  0.32104446    -0.25200
N3479       N  0.57829107  0.73166158  0.23978478    -0.82600
H3480       H  0.61682286  0.74258680  0.28250510     0.13100
C3481       C  0.61933211  0.75405118  0.34729459     0.02500
N3482       N  0.56694012  0.75624813  0.37522382    -0.81200
H3483       H  0.52850596  0.74645597  0.33211575     0.18000
C3484       C  0.62153521  0.77681938  0.36566499    -0.26000
C3485       C  0.64284915  0.78098728  0.38710878     0.36000
C3486       C  0.66287648  0.76238498  0.38960612    -0.20100
C3487       C  0.66141749  0.74015218  0.37022358    -0.25300
C3488       C  0.63964769  0.73554763  0.34955256     0.27400
H3489       H  0.60626875  0.79123346  0.36368285     0.13100
N3490       N  0.64412793  0.80391632  0.40669267    -0.82600
H3491       H  0.67667888  0.72573712  0.37250086     0.18000
N3492       N  0.63765312  0.71175108  0.33183334    -0.81200
H3493       H  0.62780581  0.81560453  0.40225971     0.33600
H3494       H  0.66054117  0.81438509  0.39915542     0.38100
H3495       H  0.65411487  0.70023385  0.33621384     0.33600
H3496       H  0.62156341  0.70169102  0.34116143     0.30300
H3497       H  0.54713695  0.75660828  0.38164329     0.33600
H3498       H  0.57545514  0.74102511  0.38833726     0.30300
H3499       H  0.56944501  0.74602271  0.22551647     0.38100
H3500       H  0.59808688  0.73136789  0.23333221     0.33600
C3501       C  0.95404544  0.73814847  0.29142316    -0.20100
C3502       C  0.95645945  0.75050086  0.32210016     0.36100
C3503       C  0.93412565  0.75452450  0.34168380    -0.26100
C3504       C  0.90914470  0.74633011  0.33144477     0.02500
C3505       C  0.90649932  0.73473023  0.30031374     0.27300
C3506       C  0.92875463  0.73124584  0.28055109    -0.25200
N3507       N  0.98152588  0.75837067  0.33409534    -0.82600
H3508       H  0.93638880  0.76389010  0.36527016     0.13100
C3509       C  0.88597367  0.74990823  0.35342118     0.02500
N3510       N  0.88130574  0.72589733  0.28917222    -0.81200
H3511       H  0.92631726  0.72253096  0.25660419     0.18000
C3512       C  0.86346430  0.76248312  0.34139400    -0.26000
C3513       C  0.84119015  0.76615495  0.36124293     0.36000
C3514       C  0.84151820  0.75757711  0.39426051    -0.20100
C3515       C  0.86402302  0.74475385  0.40609917    -0.25300
C3516       C  0.88601213  0.74059005  0.38607258     0.27400
H3517       H  0.86340277  0.76980076  0.31641810     0.13100
N3518       N  0.81859634  0.77912472  0.34814175    -0.82600
H3519       H  0.86438157  0.73757563  0.43115002     0.18000
N3520       N  0.90824971  0.72665089  0.39870249    -0.81200
H3521       H  0.82138070  0.78388291  0.32340091     0.33600
H3522       H  0.81692333  0.79647902  0.36075909     0.38100
H3523       H  0.90523783  0.72123733  0.42318703     0.33600
H3524       H  0.90985000  0.70962459  0.38526734     0.30300
H3525       H  0.88263891  0.71793775  0.26568274     0.33600
H3526       H  0.87541028  0.71105485  0.30491927     0.30300
H3527       H  0.98476716  0.74925167  0.35671744     0.38100
H3528       H  0.98089128  0.77820423  0.33820368     0.33600
C3529       C  0.74536242  0.85458005  0.38852719    -0.20100
C3530       C  0.75878076  0.85472477  0.35815012     0.36100
C3531       C  0.75827072  0.87706160  0.33810984    -0.26100
C3532       C  0.74446564  0.89918569  0.34762365     0.02500
C3533       C  0.73012125  0.89867972  0.37711179     0.27300
C3534       C  0.73070431  0.87650626  0.39714504    -0.25200
N3535       N  0.77380352  0.83272059  0.34841237    -0.82600
H3536       H  0.76923119  0.87748571  0.31536694     0.13100
C3537       C  0.74621640  0.92331705  0.32765583     0.02500
N3538       N  0.71534123  0.92090297  0.38687613    -0.81200
H3539       H  0.71998055  0.87654504  0.42007645     0.18000
C3540       C  0.72538508  0.93051532  0.30690075    -0.26000
C3541       C  0.72598634  0.95388746  0.28918096     0.36000
C3542       C  0.74760916  0.97054912  0.29234185    -0.20100
C3543       C  0.76838505  0.96342180  0.31321433    -0.25300
C3544       C  0.76794855  0.93995113  0.33081229     0.27400
H3545       H  0.70845605  0.91806042  0.30473630     0.13100
N3546       N  0.70421989  0.96105584  0.26879806    -0.82600
H3547       H  0.78500244  0.97623559  0.31574688     0.18000
N3548       N  0.78939455  0.93298788  0.35207015    -0.81200
H3549       H  0.68745972  0.96155784  0.28345772     0.33600
H3550       H  0.70161329  0.94674905  0.25110561     0.38100
H3551       H  0.80393181  0.94714608  0.35148924     0.33600
H3552       H  0.78232214  0.93245240  0.37614464     0.30300
H3553       H  0.70560038  0.91737108  0.40899672     0.33600
H3554       H  0.72862421  0.93578606  0.39143026     0.30300
H3555       H  0.78929426  0.83103866  0.36513417     0.38100
H3556       H  0.78219688  0.83576386  0.32532007     0.33600
C3557       C  0.75347921  0.67928093  0.39265556    -0.20100
C3558       C  0.76886680  0.65705283  0.39854977     0.36100
C3559       C  0.76736585  0.63611171  0.37674533    -0.26100
C3560       C  0.75082220  0.63674602  0.34915896     0.02500
C3561       C  0.73584447  0.65906156  0.34276422     0.27300
C3562       C  0.73747287  0.68019458  0.36442419    -0.25200
N3563       N  0.78605688  0.65584901  0.42662294    -0.82600
H3564       H  0.77907282  0.61906565  0.38135530     0.13100
C3565       C  0.74981276  0.61384476  0.32717458     0.02500
N3566       N  0.71868599  0.65995323  0.31468842    -0.81200
H3567       H  0.72558812  0.69712202  0.35980962     0.18000
C3568       C  0.73033733  0.59517679  0.33152721    -0.26000
C3569       C  0.73012930  0.57236891  0.31284721     0.36000
C3570       C  0.74998960  0.56754681  0.28929179    -0.20100
C3571       C  0.76899484  0.58705166  0.28449097    -0.25300
C3572       C  0.76906511  0.60992100  0.30309647     0.27400
H3573       H  0.71536540  0.59814095  0.34993352     0.13100
N3574       N  0.70970882  0.55394785  0.31819462    -0.82600
H3575       H  0.78402569  0.58509139  0.26627525     0.18000
N3576       N  0.78890693  0.62913877  0.29794084    -0.81200
H3577       H  0.69175463  0.56302068  0.31372617     0.33600
H3578       H  0.71025193  0.54837442  0.34291845     0.38100
H3579       H  0.80195126  0.62336975  0.27965630     0.33600
H3580       H  0.77962594  0.64575124  0.28915477     0.30300
H3581       H  0.70874223  0.67753648  0.31369349     0.33600
H3582       H  0.73030414  0.65908877  0.29362825     0.30300
H3583       H  0.79579119  0.63815595  0.42761933     0.38100
H3584       H  0.80044961  0.66995302  0.42352767     0.33600
loop_ 
_geom_bond_atom_site_label_1 
_geom_bond_atom_site_label_2 
_geom_bond_distance 
_geom_bond_site_symmetry_2 
_ccdc_geom_bond_type 
O1          Zr37   2.484       .  S
O1           C12   1.301       .  A
O2          Zr36   2.469       .  S
O2           C13   1.297       .  A
O3           Zr9   2.426       .  S
O3           C14   1.289       .  A
O4           Zr9   2.417       .  S
O4           C15   1.287       .  A
O5          Zr39   2.439       .  S
O5           C15   1.293       .  A
O6          Zr38   2.426       .  S
O6           C14   1.290       .  A
O7           Zr9   2.442       .  S
O7           C13   1.293       .  A
O8           Zr9   2.440       .  S
O8           C12   1.293       .  A
Zr9          O10   2.334       .  S
Zr9          O11   2.337       .  S
Zr9          O19   2.340       .  S
Zr9          O17   2.338       .  S
O10         Zr36   2.350       .  S
O10         Zr39   2.341       .  S
O11         Zr37   2.354       .  S
O11         Zr38   2.342       .  S
C12         C869   1.500       .  S
C13         C630   1.488       .  S
C14         C673   1.482       .  S
C15         C714   1.483       .  S
H16          O17   0.966       .  S
O17         Zr36   2.351       .  S
O17         Zr38   2.343       .  S
H18          O19   0.966       .  S
O19         Zr37   2.352       .  S
O19         Zr39   2.342       .  S
O20         Zr36   2.480       .  S
O20          C43   1.300       .  A
O21         Zr37   2.483       .  S
O21          C44   1.301       .  A
O22         Zr38   2.451       .  S
O22          C45   1.295       .  A
O23         Zr39   2.442       .  S
O23          C46   1.294       .  A
O24         Zr39   2.447       .  S
O24          C47   1.294       .  A
O25         Zr38   2.441       .  S
O25          C48   1.294       .  A
O26         Zr40   2.418       .  S
O26          C49   1.288       .  A
O27         Zr40   2.414       .  S
O27          C50   1.287       .  A
O28         Zr38   2.425       .  S
O28          C49   1.290       .  A
O29         Zr39   2.439       .  S
O29          C50   1.292       .  A
O30         Zr36   2.465       .  S
O30          C45   1.297       .  A
O31         Zr37   2.478       .  S
O31          C48   1.300       .  A
O32         Zr37   2.476       .  S
O32          C47   1.300       .  A
O33         Zr36   2.455       .  S
O33          C46   1.295       .  A
O34         Zr40   2.440       .  S
O34          C43   1.293       .  A
O35         Zr40   2.438       .  S
O35          C44   1.292       .  A
Zr36         O42   2.350       .  S
Zr36         O54   2.353       .  S
Zr37         O41   2.357       .  S
Zr37         O52   2.358       .  S
Zr38         O42   2.338       .  S
Zr38         O52   2.344       .  S
Zr39         O41   2.341       .  S
Zr39         O54   2.344       .  S
Zr40         O41   2.342       .  S
Zr40         O42   2.336       .  S
Zr40         O54   2.338       .  S
Zr40         O52   2.341       .  S
C43         C658   1.501       .  S
C44         C841   1.493       .  S
C45         C561   1.490       .  S
C46         C589   1.486       .  S
C47         C798   1.493       .  S
C48         C826   1.508       .  S
C49         C757   1.479       .  S
C50         C742   1.471       .  S
H51          O52   0.967       .  S
H53          O54   0.965       .  S
N55          H87   1.039       .  S
N55          C59   1.352       .  A
N55         C956   1.350   1_545  A
N56          C64   1.349   1_655  A
N56        C1855   1.349       .  A
N57          H88   1.038       .  S
N57          C61   1.352       .  A
N57         C958   1.353   1_545  A
N58          C66   1.348       .  A
N58        C1857   1.348   1_455  A
C59          C67   1.386       .  A
C59          C75   1.410       .  A
C60         N951   1.349       .  A
C60          C76   1.409       .  A
C60          C68   1.387       .  A
C61          C69   1.387       .  A
C61          C78   1.413       .  A
C62         N953   1.350       .  A
C62          C77   1.409       .  A
C62          C70   1.386       .  A
C63        N1848   1.349       .  A
C63          C75   1.409       .  A
C63          C71   1.386       .  A
C64          C78   1.408       .  A
C64          C72   1.387       .  A
C65        N1850   1.347       .  A
C65          C73   1.387       .  A
C65          C76   1.408       .  A
C66          C74   1.387       .  A
C66          C77   1.408       .  A
C67         C964   1.374       .  A
C67          H79   1.082       .  S
C68         C963   1.375       .  A
C68          H80   1.082       .  S
C69         C966   1.374       .  A
C69          H81   1.082       .  S
C70         C965   1.375       .  A
C70          H82   1.082       .  S
C71        C1864   1.371       .  A
C71          H83   1.082       .  S
C72        C1863   1.370   1_455  A
C72          H84   1.082       .  S
C73        C1866   1.369       .  A
C73          H85   1.083       .  S
C74        C1865   1.371   1_455  A
C74          H86   1.082       .  S
C75         C686   1.480       .  S
C76         C770   1.471       .  S
C77         C729   1.474       .  S
C78         C701   1.478       .  S
O89        Zr125   2.483       .  S
O89         C100   1.302       .  A
O90        Zr124   2.470       .  S
O90         C101   1.298       .  A
O91       Zr1889   2.432   1_455  S
O91         C102   1.291       .  A
O92         Zr97   2.440       .  S
O92         C103   1.293       .  A
O93        Zr127   2.426       .  S
O93         C103   1.289       .  A
O94        Zr126   2.435       .  S
O94         C102   1.292       .  A
O95         Zr97   2.437       .  S
O95         C101   1.293       .  A
O96         Zr97   2.427   1_556  S
O96         C100   1.291       .  A
Zr97       O1883   2.422   1_554  S
Zr97         O98   2.332       .  S
Zr97        O107   2.340   1_554  S
Zr97       O1891   2.344   1_554  S
Zr97       O1897   2.342       .  S
O98        Zr124   2.358       .  S
O98        Zr127   2.337       .  S
O99        Zr126   2.341       .  S
O99       Zr1889   2.340   1_455  S
O99       Zr1917   2.351   1_455  S
C100        C533   1.500       .  S
C101        C294   1.495       .  S
C102        C337   1.483       .  S
C103        C365   1.490       .  S
H104        O105   0.967       .  S
O105       Zr126   2.342   1_554  S
O105      Zr1889   2.345   1_454  S
O105      Zr1916   2.353   1_455  S
H106        O107   0.966       .  S
O107       Zr125   2.365       .  S
O107       Zr127   2.337   1_556  S
O108      Zr1020   2.478   1_545  S
O108        C131   1.299       .  A
O109      Zr1021   2.478   1_545  S
O109        C132   1.300       .  A
O110       Zr126   2.424   1_554  S
O110        C133   1.291       .  A
O111       Zr127   2.426       .  S
O111        C134   1.291       .  A
O112       Zr127   2.429   1_556  S
O112       C1031   1.291       .  A
O113       Zr126   2.421       .  S
O113       C1032   1.290       .  A
O114      Zr1920   2.418   1_455  S
O114        C137   1.289       .  A
O115       Zr128   2.431       .  S
O115        C138   1.290       .  A
O116      Zr1022   2.441   1_545  S
O116        C137   1.292       .  A
O117      Zr1023   2.408   1_545  S
O117        C138   1.286       .  A
O118      Zr1916   2.493   1_455  S
O118        C133   1.302       .  A
O119      Zr2813   2.476   1_455  S
O119        C136   1.300       .  A
O120      Zr1021   2.471       .  S
O120        C135   1.299       .  A
O121       Zr124   2.482       .  S
O121        C134   1.301       .  A
O122       Zr128   2.427   1_554  S
O122        C131   1.291       .  A
O123       Zr128   2.413       .  S
O123        C132   1.288       .  A
Zr124      O1004   2.464       .  S
Zr124      O1910   2.495       .  S
Zr124      O1897   2.352       .  S
Zr124      O2818   2.347       .  S
Zr124      O1038   2.363       .  S
Zr125      O1005   2.475       .  S
Zr125      O2807   2.507       .  S
Zr125      O1016   2.493       .  S
Zr125      O1891   2.351       .  S
Zr125      O1025   2.353       .  S
Zr125      O2828   2.359       .  S
Zr126      O1012   2.449   1_556  S
Zr126      O1026   2.331   1_556  S
Zr126      O1036   2.339       .  S
Zr127      O1013   2.413   1_554  S
Zr127      O1025   2.330   1_554  S
Zr127      O1038   2.341       .  S
Zr128      O1906   2.402       .  S
Zr128       O129   2.321       .  S
Zr128       O142   2.328   1_556  S
Zr128      O1922   2.333   1_556  S
Zr128      O1932   2.347       .  S
O129      Zr1021   2.348   1_545  S
O129      Zr1023   2.329   1_545  S
O130      Zr2812   2.348   1_445  S
O130      Zr1022   2.337   1_544  S
O130      Zr1920   2.336   1_454  S
C131        C322   1.508       .  S
C132        C518   1.502       .  S
C133        C225   1.511       .  S
C134        C253   1.508       .  S
C135       O1008   1.293       .  A
C135       C1345   1.493       .  S
C136       O1009   1.291       .  A
C136       C1386   1.498       .  S
C137        C421   1.479   1_556  S
C138        C393   1.468       .  S
H139        O140   0.968       .  S
O140      Zr2813   2.353   1_445  S
O140      Zr1022   2.340   1_545  S
O140      Zr1920   2.345   1_455  S
H141        O142   0.965       .  S
O142      Zr1020   2.355   1_545  S
O142      Zr1023   2.341   1_544  S
N143        H175   1.038       .  S
N143        C148   1.353       .  A
N143        C147   1.351       .  A
N144        C151   1.349       .  A
N144        C152   1.350       .  A
N145        H176   1.039       .  S
N145        C150   1.351       .  A
N145        C149   1.352       .  A
N146        C153   1.351       .  A
N146        C154   1.350       .  A
C147        C155   1.388   1_554  A
C147        C163   1.415       .  A
C148        C164   1.412       .  A
C148        C156   1.386   1_554  A
C149        C157   1.387       .  A
C149        C166   1.410       .  A
C150        C165   1.412       .  A
C150        C158   1.387       .  A
C151        C163   1.412       .  A
C151        C159   1.387       .  A
C152        C166   1.409       .  A
C152        C160   1.385       .  A
C153        C161   1.386       .  A
C153        C164   1.411       .  A
C154        C162   1.386       .  A
C154        C165   1.410       .  A
C155        C156   1.376       .  A
C155        H167   1.082       .  S
C156        H168   1.082       .  S
C157        C158   1.374       .  A
C157        H169   1.082   1_554  S
C158        H170   1.082   1_554  S
C159        C160   1.372       .  A
C159        H171   1.082       .  S
C160        H172   1.082       .  S
C161        C162   1.371       .  A
C161        H173   1.082       .  S
C162        H174   1.082       .  S
C163        C406   1.481       .  S
C164        C378   1.483       .  S
C165        C350   1.482       .  S
C166        C434   1.481       .  S
C177        C183   1.541       .  S
C177        C181   1.547       .  S
C177       C1970   1.535       .  S
C177        C309   1.554       .  S
C178       C1969   1.535       .  S
C178        H185   1.086       .  S
C178        C179   1.368       .  D
C179       C1972   1.554       .  S
C179        C785   1.501       .  S
C180        C184   1.546       .  S
C180        C182   1.553       .  S
C180       C1971   1.554       .  S
C180        H186   1.106       .  S
C181        H187   1.079       .  S
C181        C182   1.372       .  D
C182        C813   1.516       .  S
C183        H188   1.086       .  S
C183        C184   1.371       .  D
C184        C281   1.503       .  S
C189        C190   1.547       .  S
C189        C193   1.541       .  S
C189       C1091   1.542       .  S
C189        C882   1.555       .  S
C190        H197   1.080       .  S
C190       C1087   1.369       .  D
C191        C192   1.544       .  S
C191       C1086   1.366       .  D
C191        C266   1.493       .  S
C192        C196   1.538       .  S
C192        C194   1.554       .  S
C192        H198   1.106       .  S
C193        H199   1.086       .  S
C193       C1090   1.373       .  D
C194       C1089   1.377       .  D
C194        C238   1.517       .  S
C195       C1085   1.541       .  S
C195        H200   1.086       .  S
C195        C196   1.366       .  D
C196        C854   1.491       .  S
C201        C202   1.535       .  S
C201        C207   1.539       .  S
C201       C1997   1.546       .  S
C201        C505   1.545       .  S
C202        H209   1.087       .  S
C202        C203   1.363       .  D
C203        C204   1.546       .  S
C203        C574   1.494       .  S
C204        C208   1.545       .  S
C204       C1998   1.552       .  S
C204        H210   1.109       .  S
C205       C1993   1.545       .  S
C205        H211   1.080       .  S
C205        C206   1.369       .  D
C206       C1996   1.547       .  S
C206        C602   1.500       .  S
C207        H212   1.086       .  S
C207        C208   1.368       .  D
C208        C546   1.492       .  S
C213        C214   1.546       .  S
C213        C217   1.538       .  S
C213       C1115   1.541       .  S
C213        C617   1.552       .  S
C214        H221   1.080       .  S
C214       C1111   1.367       .  D
C215        C216   1.548       .  S
C215       C1110   1.366       .  D
C215        C477   1.493       .  S
C216        C220   1.545       .  S
C216        C218   1.550       .  S
C216        H222   1.111       .  S
C217        H223   1.086       .  S
C217       C1114   1.369       .  D
C218       C1113   1.372       .  D
C218        C462   1.507       .  S
C219       C1109   1.539       .  S
C219        H224   1.086       .  S
C219        C220   1.366       .  D
C220        C645   1.493       .  S
C225        C226   1.417       .  A
C225       C1126   1.413       .  A
C226        C227   1.418       .  A
C226        N231   1.437       .  S
C227        C228   1.410       .  A
C227        H232   1.083       .  S
C228        C233   1.507       .  S
C228       C1125   1.411       .  A
C229        C230   1.408       .  A
C229       C1124   1.413       .  A
C229        N234   1.438   1_565  S
C230       C1121   1.412       .  A
C230        H235   1.082       .  S
N231        H251   1.045       .  S
N231        H252   1.045       .  S
C233        C240   1.413       .  A
C233       C1132   1.407       .  A
N234        H249   1.045       .  S
N234        H250   1.046       .  S
C236        C237   1.410       .  A
C236       C1129   1.410       .  A
C236        H241   1.083       .  S
C237       C1134   1.412   1_565  A
C237        N242   1.432       .  S
C238        C239   1.412       .  A
C238       C1133   1.417       .  A
C239        C240   1.413       .  A
C239        H243   1.082       .  S
C240        N244   1.438       .  S
N242        H245   1.046       .  S
N242        H246   1.046       .  S
N244        H247   1.045       .  S
N244        H248   1.046       .  S
C253        C254   1.420       .  A
C253        C258   1.414       .  A
C254        C255   1.417       .  A
C254       N1155   1.437       .  S
C255        C256   1.406       .  A
C255       H1156   1.083       .  S
C256        C261   1.496       .  S
C256        C257   1.406       .  A
C257        C258   1.404       .  A
C257        N262   1.438       .  S
C258        H263   1.083       .  S
N259       C1150   1.437       .  S
N259        H279   1.046   1_565  S
N259        H280   1.046   1_565  S
H260       C1151   1.083       .  S
C261        C268   1.412       .  A
C261       C1160   1.405       .  A
N262        H277   1.046       .  S
N262        H278   1.046       .  S
C264        C265   1.409       .  A
C264       C1157   1.402   1_545  A
C264        H269   1.084       .  S
C265       C1162   1.415       .  A
C265        N270   1.438       .  S
C266        C267   1.404       .  A
C266       C1161   1.413       .  A
C267        C268   1.413       .  A
C267        H271   1.084       .  S
C268        N272   1.437       .  S
N270        H273   1.046       .  S
N270        H274   1.046       .  S
N272        H275   1.046       .  S
N272        H276   1.046       .  S
C281        C286   1.408       .  A
C281       C2074   1.417       .  A
C282        C283   1.412       .  A
C282       C2073   1.418   1_455  A
C282        N287   1.436       .  S
C283       C2076   1.402   1_455  A
C283        H288   1.084       .  S
C284        C289   1.491       .  S
C284        C285   1.409       .  A
C284       C2075   1.402       .  A
C285        C286   1.409       .  A
C285        N290   1.438       .  S
C286        H291   1.083       .  S
N287        H307   1.044       .  S
N287        H308   1.045       .  S
C289        C296   1.411       .  A
C289       C2084   1.400       .  A
N290        H305   1.046       .  S
N290        H306   1.046       .  S
C292        C293   1.406       .  A
C292       C2081   1.400   1_455  A
C292        H297   1.084       .  S
C293       C2086   1.418   1_455  A
C293        N298   1.439       .  S
C294        C295   1.407       .  A
C294       C2085   1.418       .  A
C295        C296   1.415       .  A
C295        H299   1.083       .  S
C296        N300   1.437       .  S
N298        H301   1.046       .  S
N298        H302   1.046       .  S
N300        H303   1.045       .  S
N300        H304   1.046       .  S
C309        C314   1.416       .  A
C309       C2102   1.421       .  A
C310        C311   1.411       .  A
C310       C2101   1.419       .  A
C310        N315   1.433       .  S
C311       C2104   1.406       .  A
C311        H316   1.084       .  S
C312        C317   1.496       .  S
C312        C313   1.407       .  A
C312       C2103   1.402       .  A
C313        C314   1.411       .  A
C313        N318   1.438       .  S
C314        H319   1.074       .  S
N315        H335   1.046       .  S
N315        H336   1.045       .  S
C317        C324   1.408       .  A
C317       C2112   1.405       .  A
N318        H333   1.045       .  S
N318        H334   1.046       .  S
C320        C321   1.417       .  A
C320       C2109   1.408       .  A
C320        H325   1.083       .  S
C321       C2114   1.420       .  A
C321        N326   1.437   1_455  S
C322        C323   1.414       .  A
C322       C2113   1.420       .  A
C323        C324   1.408       .  A
C323        H327   1.083       .  S
C324        N328   1.438       .  S
N326        H329   1.046       .  S
N326        H330   1.045   1_655  S
N328        H331   1.046       .  S
N328        H332   1.046       .  S
C337        C338   1.416       .  A
C337        C342   1.407   1_556  A
C338        C339   1.404       .  A
C338        N343   1.438       .  S
C339        C340   1.399   1_556  A
C339        H344   1.084       .  S
C340        C345   1.473       .  S
C340        C341   1.406       .  A
C341        C342   1.403       .  A
C341        N346   1.438       .  S
C342        H347   1.084       .  S
N343        H363   1.046       .  S
N343        H364   1.046       .  S
C345        C348   1.400   1_554  A
C345        C352   1.409       .  A
N346        H361   1.046       .  S
N346        H362   1.045       .  S
C348        C349   1.400       .  A
C348        H353   1.084       .  S
C349        C350   1.407   1_556  A
C349        N354   1.432       .  S
C350        C351   1.401       .  A
C351        C352   1.404       .  A
C351        H355   1.084       .  S
C352        N356   1.438       .  S
N354        H357   1.045       .  S
N354        H358   1.046       .  S
N356        H359   1.046       .  S
N356        H360   1.045       .  S
C365        C366   1.420       .  A
C365        C370   1.408   1_554  A
C366        C367   1.407       .  A
C366        N371   1.439       .  S
C367        C368   1.400       .  A
C367        H372   1.084       .  S
C368        C373   1.475       .  S
C368        C369   1.404   1_554  A
C369        C370   1.402       .  A
C369        N374   1.438       .  S
C370        H375   1.082       .  S
N371        H391   1.046       .  S
N371        H392   1.046       .  S
C373        C376   1.401   1_554  A
C373        C380   1.408       .  A
N374        H389   1.046       .  S
N374        H390   1.045   1_556  S
C376        C377   1.405       .  A
C376        H381   1.084       .  S
C377        C378   1.410   1_556  A
C377        N382   1.437       .  S
C378        C379   1.401       .  A
C379        C380   1.404       .  A
C379        H383   1.084       .  S
C380        N384   1.438       .  S
N382        H385   1.046       .  S
N382        H386   1.046       .  S
N384        H387   1.046       .  S
N384        H388   1.045       .  S
C393        C394   1.414   1_556  A
C393        C398   1.403       .  A
C394        C395   1.400       .  A
C394        N399   1.439       .  S
C395        C396   1.398   1_554  A
C395        H400   1.084       .  S
C396        C401   1.466       .  S
C396        C397   1.406       .  A
C397        C398   1.401       .  A
C397        N402   1.438       .  S
C398        H403   1.084       .  S
N399        H419   1.046       .  S
N399        H420   1.046       .  S
C401        C404   1.399   1_556  A
C401        C408   1.406       .  A
N402        H417   1.046       .  S
N402        H418   1.045       .  S
C404        C405   1.399       .  A
C404        H409   1.084       .  S
C405        C406   1.408       .  A
C405        N410   1.438       .  S
C406        C407   1.404   1_554  A
C407        C408   1.403       .  A
C407        H411   1.084       .  S
C408        N412   1.438       .  S
N410        H413   1.046       .  S
N410        H414   1.045       .  S
N412        H415   1.046       .  S
N412        H416   1.045       .  S
C421        C422   1.413       .  A
C421        C426   1.407   1_554  A
C422        C423   1.403       .  A
C422        N427   1.436       .  S
C423        C424   1.399       .  A
C423        H428   1.084       .  S
C424        C429   1.473       .  S
C424        C425   1.406   1_554  A
C425        C426   1.403       .  A
C425        N430   1.438       .  S
C426        H431   1.084       .  S
N427        H447   1.045       .  S
N427        H448   1.045       .  S
C429        C432   1.399   1_554  A
C429        C436   1.410       .  A
N430        H445   1.046       .  S
N430        H446   1.046       .  S
C432        C433   1.401       .  A
C432        H437   1.084       .  S
C433        C434   1.409   1_556  A
C433        N438   1.438       .  S
C434        C435   1.402       .  A
C435        C436   1.405       .  A
C435        H439   1.084       .  S
C436        N440   1.438       .  S
N438        H441   1.046       .  S
N438        H442   1.045       .  S
N440        H443   1.046       .  S
N440        H444   1.046       .  S
C449       C1031   1.498       .  S
C449        C454   1.405       .  A
C449       C1346   1.419       .  A
C450        C451   1.409       .  A
C450       C1345   1.417   1_545  A
C450        N455   1.439       .  S
C451       C1348   1.404   1_545  A
C451        H456   1.084       .  S
C452        C457   1.504       .  S
C452        C453   1.416       .  A
C452       C1347   1.403       .  A
C453        C454   1.418       .  A
C453        N458   1.437       .  S
C454        H459   1.083       .  S
N455        H475   1.046       .  S
N455        H476   1.046       .  S
C457        C460   1.403       .  A
C457       C1360   1.415       .  A
N458        H473   1.046       .  S
N458        H474   1.046       .  S
C460        C461   1.412       .  A
C460        H465   1.084       .  S
C461        C462   1.418       .  A
C461        N466   1.438       .  S
C462       C1359   1.406       .  A
C463        C464   1.413       .  A
C463       C1358   1.403   1_565  A
C463        H467   1.083       .  S
C464       C1353   1.416       .  A
C464        N468   1.437       .  S
N466        H469   1.045       .  S
N466        H470   1.045       .  S
N468        H471   1.046       .  S
N468        H472   1.046       .  S
C477        C478   1.412       .  A
C477       C1378   1.403       .  A
C478        C479   1.413       .  A
C478        N483   1.437       .  S
C479       C1376   1.405       .  A
C479        H484   1.083       .  S
C480        C485   1.492       .  S
C480        C481   1.410   1_565  A
C480       C1375   1.404       .  A
C481        C482   1.408       .  A
C481        N486   1.438       .  S
C482       C1373   1.406       .  A
C482        H487   1.084       .  S
N483        H503   1.046       .  S
N483        H504   1.046       .  S
C485        C488   1.400       .  A
C485       C1388   1.413       .  A
N486        H501   1.046       .  S
N486        H502   1.045       .  S
C488        C489   1.406       .  A
C488        H493   1.084       .  S
C489       C1386   1.417       .  A
C489        N494   1.433       .  S
C490       C1032   1.498       .  S
C490        C491   1.406       .  A
C490       C1385   1.418       .  A
C491        C492   1.415       .  A
C491        H495   1.083       .  S
C492       C1381   1.415       .  A
C492        N496   1.437       .  S
N494        H497   1.046       .  S
N494        H498   1.046       .  S
N496        H499   1.046       .  S
N496        H500   1.046       .  S
C505        C506   1.420       .  A
C505       C2302   1.415       .  A
C506        C507   1.404       .  A
C506        N511   1.433       .  S
C507       C2300   1.400       .  A
C507        H512   1.084       .  S
C508       C2305   1.493       .  S
C508        C509   1.408   1_655  A
C508       C2299   1.400       .  A
C509        C510   1.413       .  A
C509        N514   1.438       .  S
C510       C2297   1.417       .  A
C510        H515   1.075       .  S
N511        H531   1.045       .  S
N511        H532   1.046       .  S
C513       C2300   1.491       .  S
C513        C516   1.406       .  A
C513       C2312   1.406       .  A
N514        H529   1.045       .  S
N514        H530   1.046       .  S
C516        C517   1.415       .  A
C516        H521   1.083       .  S
C517        C518   1.417       .  A
C517        N522   1.437       .  S
C518       C2311   1.413       .  A
C519        C520   1.403       .  A
C519       C2310   1.412   1_455  A
C519        H523   1.083       .  S
C520       C2305   1.406   1_455  A
C520        N524   1.438       .  S
N522        H525   1.046       .  S
N522        H526   1.046       .  S
N524        H527   1.046       .  S
N524        H528   1.046       .  S
C533        C534   1.422       .  A
C533       C2330   1.408       .  A
C534        C535   1.407       .  A
C534        N539   1.438       .  S
C535       C2328   1.399       .  A
C535        H540   1.084       .  S
C536        C541   1.494   1_655  S
C536        C537   1.411   1_655  A
C536       C2327   1.399       .  A
C537        C538   1.417       .  A
C537        N542   1.437       .  S
C538       C2325   1.410   1_455  A
C538        H543   1.083       .  S
N539        H559   1.046       .  S
N539        H560   1.046       .  S
C541        C548   1.411       .  A
C541       C2336   1.405   1_455  A
N542        H557   1.046       .  S
N542        H558   1.046       .  S
C544        C545   1.408       .  A
C544       C2333   1.403       .  A
C544        H549   1.084       .  S
C545        C546   1.410       .  A
C545        N550   1.431       .  S
C546       C2339   1.406       .  A
C547        C548   1.409       .  A
C547       C2338   1.406       .  A
C547        H551   1.083       .  S
C548        N552   1.437       .  S
N550        H553   1.045       .  S
N550        H554   1.045       .  S
N552        H555   1.046       .  S
N552        H556   1.046       .  S
C561        C562   1.411       .  A
C561        C566   1.404       .  A
C562        C563   1.410       .  A
C562        N567   1.438       .  S
C563        C564   1.408       .  A
C563        H568   1.083       .  S
C564        C569   1.508       .  S
C564        C565   1.419       .  A
C565        C566   1.414       .  A
C565        N570   1.438       .  S
C566        H571   1.084       .  S
N567        H587   1.046       .  S
N567        H588   1.046       .  S
C569        C572   1.407       .  A
C569        C576   1.421       .  A
N570        H585   1.046       .  S
N570        H586   1.045       .  S
C572        C573   1.408       .  A
C572        H577   1.083       .  S
C573        C574   1.411       .  A
C573        N578   1.433       .  S
C574        C575   1.400       .  A
C575        C576   1.414       .  A
C575        H579   1.084       .  S
C576        N580   1.437       .  S
N578        H581   1.045       .  S
N578        H582   1.046       .  S
N580        H583   1.046       .  S
N580        H584   1.046       .  S
C589        C590   1.413       .  A
C589        C594   1.406       .  A
C590        C591   1.409       .  A
C590        N595   1.438       .  S
C591        C592   1.405       .  A
C591        H596   1.084       .  S
C592        C597   1.493       .  S
C592        C593   1.411       .  A
C593        C594   1.408       .  A
C593        N598   1.438       .  S
C594        H599   1.084       .  S
N595        H615   1.045       .  S
N595        H616   1.046       .  S
C597        C600   1.404       .  A
C597        C604   1.411       .  A
N598        H613   1.046       .  S
N598        H614   1.045       .  S
C600        C601   1.411       .  A
C600        H605   1.083       .  S
C601        C602   1.415       .  A
C601        N606   1.436       .  S
C602        C603   1.407       .  A
C603        C604   1.407       .  A
C603        H607   1.083       .  S
C604        N608   1.438       .  S
N606        H609   1.045       .  S
N606        H610   1.045       .  S
N608        H611   1.046       .  S
N608        H612   1.046       .  S
C617        C618   1.420       .  A
C617        C622   1.415       .  A
C618        C619   1.410       .  A
C618        N623   1.433       .  S
C619        C620   1.403       .  A
C619        H624   1.084       .  S
C620        C625   1.499       .  S
C620        C621   1.409       .  A
C621        C622   1.412       .  A
C621        N626   1.438       .  S
C622        H627   1.074       .  S
N623        H643   1.045       .  S
N623        H644   1.046       .  S
C625        C628   1.405       .  A
C625        C632   1.414       .  A
N626        H641   1.045       .  S
N626        H642   1.045       .  S
C628        C629   1.410       .  A
C628        H633   1.084       .  S
C629        C630   1.413       .  A
C629        N634   1.438       .  S
C630        C631   1.404       .  A
C631        C632   1.413       .  A
C631        H635   1.084       .  S
C632        N636   1.437       .  S
N634        H637   1.046       .  S
N634        H638   1.046       .  S
N636        H639   1.046       .  S
N636        H640   1.046       .  S
C645        C646   1.409       .  A
C645        C650   1.406       .  A
C646        C647   1.410       .  A
C646        N651   1.432       .  S
C647        C648   1.405       .  A
C647        H652   1.084       .  S
C648        C653   1.494       .  S
C648        C649   1.412       .  A
C649        C650   1.411       .  A
C649        N654   1.438       .  S
C650        H655   1.084       .  S
N651        H671   1.045       .  S
N651        H672   1.046       .  S
C653        C656   1.405       .  A
C653        C660   1.408       .  A
N654        H669   1.046       .  S
N654        H670   1.045       .  S
C656        C657   1.416       .  A
C656        H661   1.084       .  S
C657        C658   1.417       .  A
C657        N662   1.437       .  S
C658        C659   1.410       .  A
C659        C660   1.408       .  A
C659        H663   1.084       .  S
C660        N664   1.438       .  S
N662        H665   1.046       .  S
N662        H666   1.046       .  S
N664        H667   1.046       .  S
N664        H668   1.045       .  S
C673        C674   1.415       .  A
C673        C678   1.408       .  A
C674        C675   1.399       .  A
C674        N679   1.433       .  S
C675        C676   1.397       .  A
C675        H680   1.084       .  S
C676        C681   1.472       .  S
C676        C677   1.407       .  A
C677        C678   1.403       .  A
C677        N682   1.438       .  S
C678        H683   1.084       .  S
N679        H699   1.046       .  S
N679        H700   1.046       .  S
C681        C684   1.401       .  A
C681        C688   1.408       .  A
N682        H697   1.046       .  S
N682        H698   1.046       .  S
C684        C685   1.402       .  A
C684        H689   1.084       .  S
C685        C686   1.408       .  A
C685        N690   1.437       .  S
C686        C687   1.402       .  A
C687        C688   1.403       .  A
C687        H691   1.084       .  S
C688        N692   1.437       .  S
N690        H693   1.046       .  S
N690        H694   1.046       .  S
N692        H695   1.046       .  S
N692        H696   1.046       .  S
C701        C702   1.408       .  A
C701        C706   1.399       .  A
C702        C703   1.403       .  A
C702        N707   1.437       .  S
C703        C704   1.402       .  A
C703        H708   1.084       .  S
C704        C709   1.475       .  S
C704        C705   1.411       .  A
C705        C706   1.402       .  A
C705        N710   1.438       .  S
C706        H711   1.084       .  S
N707        H727   1.045       .  S
N707        H728   1.046       .  S
C709        C712   1.399       .  A
C709        C716   1.407       .  A
N710        H725   1.046       .  S
N710        H726   1.046       .  S
C712        C713   1.401       .  A
C712        H717   1.084       .  S
C713        C714   1.419       .  A
C713        N718   1.439       .  S
C714        C715   1.407       .  A
C715        C716   1.403       .  A
C715        H719   1.083       .  S
C716        N720   1.438       .  S
N718        H721   1.046       .  S
N718        H722   1.046       .  S
N720        H723   1.046       .  S
N720        H724   1.046       .  S
C729        C730   1.414       .  A
C729        C734   1.400       .  A
C730        C731   1.397       .  A
C730        N735   1.439       .  S
C731        C732   1.401       .  A
C731        H736   1.084       .  S
C732        C737   1.473       .  S
C732        C733   1.410       .  A
C733        C734   1.401       .  A
C733        N738   1.438       .  S
C734        H739   1.084       .  S
N735        H755   1.043       .  S
N735        H756   1.046       .  S
C737        C740   1.400       .  A
C737        C744   1.410       .  A
N738        H753   1.046       .  S
N738        H754   1.045       .  S
C740        C741   1.397       .  A
C740        H745   1.084       .  S
C741        C742   1.411       .  A
C741        N746   1.434       .  S
C742        C743   1.402       .  A
C743        C744   1.402       .  A
C743        H747   1.083       .  S
C744        N748   1.438       .  S
N746        H749   1.046       .  S
N746        H750   1.046       .  S
N748        H751   1.046       .  S
N748        H752   1.045       .  S
C757        C758   1.417       .  A
C757        C762   1.407       .  A
C758        C759   1.398       .  A
C758        N763   1.439       .  S
C759        C760   1.398       .  A
C759        H764   1.084       .  S
C760        C765   1.472       .  S
C760        C761   1.408       .  A
C761        C762   1.401       .  A
C761        N766   1.438       .  S
C762        H767   1.083       .  S
N763        H783   1.046       .  S
N763        H784   1.046       .  S
C765        C768   1.402       .  A
C765        C772   1.410       .  A
N766        H781   1.046       .  S
N766        H782   1.046       .  S
C768        C769   1.396       .  A
C768        H773   1.084       .  S
C769        C770   1.413       .  A
C769        N774   1.438       .  S
C770        C771   1.399       .  A
C771        C772   1.397       .  A
C771        H775   1.084       .  S
C772        N776   1.438       .  S
N774        H777   1.046       .  S
N774        H778   1.043       .  S
N776        H779   1.046       .  S
N776        H780   1.045       .  S
C785        C786   1.416       .  A
C785        C790   1.401       .  A
C786        C787   1.412       .  A
C786        N791   1.439       .  S
C787        C788   1.408       .  A
C787        H792   1.083       .  S
C788        C793   1.510       .  S
C788        C789   1.418       .  A
C789        C790   1.413       .  A
C789        N794   1.438       .  S
C790        H795   1.078       .  S
N791        H811   1.044       .  S
N791        H812   1.045       .  S
C793        C796   1.408       .  A
C793        C800   1.419       .  A
N794        H809   1.046       .  S
N794        H810   1.046       .  S
C796        C797   1.412       .  A
C796        H801   1.083       .  S
C797        C798   1.413       .  A
C797        N802   1.437       .  S
C798        C799   1.404       .  A
C799        C800   1.414       .  A
C799        H803   1.084       .  S
C800        N804   1.438       .  S
N802        H805   1.046       .  S
N802        H806   1.046       .  S
N804        H807   1.046       .  S
N804        H808   1.046       .  S
C813        C814   1.415       .  A
C813        C818   1.413       .  A
C814        C815   1.412       .  A
C814        N819   1.429       .  S
C815        C816   1.408       .  A
C815        H820   1.084       .  S
C816        C821   1.506       .  S
C816        C817   1.412       .  A
C817        C818   1.410       .  A
C817        N822   1.438       .  S
C818        H823   1.082       .  S
N819        H839   1.046       .  S
N819        H840   1.045       .  S
C821        C824   1.409       .  A
C821        C828   1.412       .  A
N822        H837   1.045       .  S
N822        H838   1.046       .  S
C824        C825   1.416       .  A
C824        H829   1.083       .  S
C825        C826   1.418       .  A
C825        N830   1.436       .  S
C826        C827   1.411       .  A
C827        C828   1.407       .  A
C827        H831   1.083       .  S
C828        N832   1.438       .  S
N830        H833   1.046       .  S
N830        H834   1.043       .  S
N832        H835   1.046       .  S
N832        H836   1.045       .  S
C841        C842   1.413       .  A
C841        C846   1.407       .  A
C842        C843   1.413       .  A
C842        N847   1.435       .  S
C843        C844   1.405       .  A
C843        H848   1.084       .  S
C844        C849   1.494       .  S
C844        C845   1.410       .  A
C845        C846   1.410       .  A
C845        N850   1.438       .  S
C846        H851   1.084       .  S
N847        H867   1.046       .  S
N847        H868   1.046       .  S
C849        C852   1.405       .  A
C849        C856   1.413       .  A
N850        H865   1.046       .  S
N850        H866   1.046       .  S
C852        C853   1.408       .  A
C852        H857   1.084       .  S
C853        C854   1.408       .  A
C853        N858   1.432       .  S
C854        C855   1.404       .  A
C855        C856   1.411       .  A
C855        H859   1.084       .  S
C856        N860   1.437       .  S
N858        H861   1.045       .  S
N858        H862   1.045       .  S
N860        H863   1.046       .  S
N860        H864   1.046       .  S
C869        C870   1.416       .  A
C869        C874   1.409       .  A
C870        C871   1.407       .  A
C870        N875   1.433       .  S
C871        C872   1.401       .  A
C871        H876   1.084       .  S
C872        C877   1.497       .  S
C872        C873   1.413       .  A
C873        C874   1.418       .  A
C873        N878   1.437       .  S
C874        H879   1.084       .  S
N875        H895   1.046       .  S
N875        H896   1.046       .  S
C877        C880   1.401       .  A
C877        C884   1.409       .  A
N878        H893   1.046       .  S
N878        H894   1.046       .  S
C880        C881   1.411       .  A
C880        H885   1.084       .  S
C881        C882   1.421       .  A
C881        N886   1.433       .  S
C882        C883   1.416       .  A
C883        C884   1.415       .  A
C883        H887   1.075       .  S
C884        N888   1.438       .  S
N886        H889   1.045       .  S
N886        H890   1.046       .  S
N888        H891   1.045       .  S
N888        H892   1.046       .  S
O897       Zr933   2.467       .  S
O897        C908   1.298       .  A
O898       Zr932   2.475       .  S
O898        C909   1.299       .  A
O899       Zr905   2.420       .  S
O899        C910   1.288       .  A
O900       Zr905   2.410       .  S
O900        C911   1.287       .  A
O901       Zr935   2.443       .  S
O901        C911   1.293       .  A
O902       Zr934   2.430       .  S
O902        C910   1.290       .  A
O903       Zr905   2.440       .  S
O903        C909   1.292       .  A
O904       Zr905   2.437       .  S
O904        C908   1.292       .  A
Zr905       O906   2.333       .  S
Zr905       O907   2.333       .  S
Zr905       O915   2.336       .  S
Zr905       O913   2.333       .  S
O906       Zr932   2.344       .  S
O906       Zr935   2.338       .  S
O907       Zr933   2.353       .  S
O907       Zr934   2.340       .  S
C908       C1765   1.494       .  S
C909       C1526   1.492       .  S
C910       C1569   1.471       .  S
C911       C1610   1.473       .  S
H912        O913   0.966       .  S
O913       Zr932   2.347       .  S
O913       Zr934   2.340       .  S
H914        O915   0.964       .  S
O915       Zr933   2.352       .  S
O915       Zr935   2.344       .  S
O916       Zr932   2.468       .  S
O916        C939   1.298       .  A
O917       Zr933   2.479       .  S
O917        C940   1.300       .  A
O918       Zr934   2.433       .  S
O918        C941   1.291       .  A
O919       Zr935   2.440       .  S
O919        C942   1.294       .  A
O920       Zr935   2.446       .  S
O920        C943   1.294       .  A
O921       Zr934   2.422       .  S
O921        C944   1.290       .  A
O922       Zr936   2.429       .  S
O922        C945   1.289       .  A
O923       Zr936   2.418       .  S
O923        C946   1.288       .  A
O924       Zr934   2.427       .  S
O924        C945   1.290       .  A
O925       Zr935   2.452       .  S
O925        C946   1.295       .  A
O926       Zr932   2.470       .  S
O926        C941   1.298       .  A
O927       Zr933   2.477       .  S
O927        C944   1.300       .  A
O928       Zr933   2.474       .  S
O928        C943   1.299       .  A
O929       Zr932   2.468       .  S
O929        C942   1.298       .  A
O930       Zr936   2.442       .  S
O930        C939   1.294       .  A
O931       Zr936   2.440       .  S
O931        C940   1.292       .  A
Zr932       O938   2.356       .  S
Zr932       O950   2.360       .  S
Zr933       O937   2.351       .  S
Zr933       O948   2.357       .  S
Zr934       O938   2.338       .  S
Zr934       O948   2.347       .  S
Zr935       O937   2.337       .  S
Zr935       O950   2.346       .  S
Zr936       O937   2.339       .  S
Zr936       O938   2.340       .  S
Zr936       O950   2.346       .  S
Zr936       O948   2.342       .  S
C939       C1554   1.494       .  S
C940       C1737   1.495       .  S
C941       C1457   1.486       .  S
C942       C1485   1.497       .  S
C943       C1694   1.490       .  S
C944       C1722   1.496       .  S
C945       C1653   1.488       .  S
C946       C1638   1.484       .  S
H947        O948   0.967       .  S
H949        O950   0.966       .  S
N951        H983   1.036       .  S
N951        C955   1.350       .  A
N952       C2751   1.348   1_455  A
N952        C960   1.349       .  A
N953        H984   1.037       .  S
N953        C957   1.350       .  A
N954       C2753   1.350   1_455  A
N954        C962   1.351       .  A
C955        C963   1.387       .  A
C955        C971   1.409       .  A
C956        C972   1.411       .  A
C956        C964   1.387   1_565  A
C957        C965   1.388       .  A
C957        C974   1.410       .  A
C958        C973   1.415       .  A
C958        C966   1.387   1_565  A
C959       N2744   1.348       .  A
C959        C971   1.409       .  A
C959        C967   1.387       .  A
C960        C974   1.409       .  A
C960        C968   1.386       .  A
C961       N2746   1.347       .  A
C961        C969   1.387       .  A
C961        C972   1.407       .  A
C962        C970   1.386       .  A
C962        C973   1.413       .  A
C963        H975   1.082       .  S
C964        H976   1.082   1_545  S
C965        H977   1.082       .  S
C966        H978   1.082   1_545  S
C967       C2760   1.370       .  A
C967        H979   1.082       .  S
C968       C2759   1.370   1_455  A
C968        H980   1.082       .  S
C969       C2762   1.371       .  A
C969        H981   1.082       .  S
C970       C2761   1.373   1_455  A
C970        H982   1.083       .  S
C971       C1582   1.474       .  S
C972       C1666   1.476       .  S
C973       C1625   1.486       .  S
C974       C1597   1.476       .  S
O985      Zr1021   2.479       .  S
O985        C996   1.300       .  A
O986      Zr1020   2.466       .  S
O986        C997   1.298       .  A
O987      Zr2785   2.408   1_455  S
O987        C998   1.286       .  A
O988       Zr993   2.433   1_554  S
O988        C999   1.291   1_554  A
O989      Zr1023   2.421       .  S
O989        C999   1.288       .  A
O990      Zr1022   2.432       .  S
O990        C998   1.291       .  A
O991       Zr993   2.439   1_554  S
O991        C997   1.293       .  A
O992       Zr993   2.437       .  S
O992        C996   1.293       .  A
Zr993      O2779   2.406       .  S
Zr993       O994   2.333   1_556  S
Zr993      O2787   2.339       .  S
Zr993      O1003   2.340       .  S
Zr993      O2793   2.345   1_556  S
O994      Zr1020   2.362       .  S
O994      Zr1023   2.335   1_554  S
O995      Zr2785   2.339   1_455  S
O995      Zr2813   2.349   1_455  S
O995      Zr1022   2.336       .  S
C996       C1429   1.501       .  S
C997       C1190   1.493       .  S
C998       C1233   1.472       .  S
C999       C1261   1.482   1_556  S
H1000      O1001   0.966       .  S
O1001     Zr2785   2.348   1_454  S
O1001     Zr2812   2.359   1_455  S
O1001     Zr1022   2.340   1_554  S
H1002      O1003   0.967       .  S
O1003     Zr1021   2.366       .  S
O1003     Zr1023   2.339       .  S
O1004      C1027   1.297       .  A
O1005      C1028   1.299       .  A
O1006     Zr1022   2.431   1_554  S
O1006      C1029   1.292       .  A
O1007     Zr1023   2.433   1_554  S
O1007      C1030   1.293       .  A
O1008     Zr1023   2.438       .  S
O1009     Zr1022   2.431       .  S
O1010     Zr2816   2.415   1_454  S
O1010      C1033   1.287       .  A
O1011     Zr1024   2.438   1_556  S
O1011      C1034   1.292       .  A
O1012      C1033   1.294       .  A
O1013      C1034   1.286       .  A
O1014     Zr2812   2.490   1_455  S
O1014      C1029   1.302       .  A
O1015     Zr1917   2.488   1_455  S
O1015      C1032   1.302       .  A
O1016      C1031   1.303       .  A
O1017     Zr1020   2.480       .  S
O1017      C1030   1.300       .  A
O1018     Zr1024   2.436       .  S
O1018      C1027   1.293       .  A
O1019     Zr1024   2.431   1_556  S
O1019      C1028   1.292       .  A
Zr1020     O2806   2.490       .  S
Zr1020     O2793   2.356       .  S
Zr1020     O1922   2.343   1_565  S
Zr1021     O1911   2.486       .  S
Zr1021     O2787   2.348       .  S
Zr1021     O1932   2.356   1_565  S
Zr1024     O2802   2.413       .  S
Zr1024     O1025   2.327   1_554  S
Zr1024     O2818   2.337       .  S
Zr1024     O1038   2.335       .  S
Zr1024     O2828   2.346   1_554  S
O1026     Zr1916   2.349   1_455  S
O1026     Zr2816   2.335   1_454  S
C1027      C1218   1.505       .  S
C1028      C1414   1.507       .  S
C1029      C1121   1.513       .  S
C1030      C1149   1.506       .  S
C1033      C1317   1.479       .  S
C1034      C1289   1.481       .  S
H1035      O1036   0.967       .  S
O1036     Zr1917   2.363   1_455  S
O1036     Zr2816   2.345   1_455  S
H1037      O1038   0.967       .  S
N1039      H1071   1.039       .  S
N1039      C1044   1.350       .  A
N1039      C1043   1.351       .  A
N1040      C1047   1.349       .  A
N1040      C1048   1.349       .  A
N1041      H1072   1.039       .  S
N1041      C1046   1.350       .  A
N1041      C1045   1.350       .  A
N1042      C1049   1.347       .  A
N1042      C1050   1.348       .  A
C1043      C1051   1.388   1_554  A
C1043      C1059   1.413       .  A
C1044      C1060   1.408       .  A
C1044      C1052   1.386   1_554  A
C1045      C1053   1.388       .  A
C1045      C1062   1.410       .  A
C1046      C1061   1.409       .  A
C1046      C1054   1.387   1_554  A
C1047      C1059   1.411       .  A
C1047      C1055   1.387       .  A
C1048      C1062   1.407       .  A
C1048      C1056   1.385       .  A
C1049      C1057   1.386       .  A
C1049      C1060   1.405       .  A
C1050      C1058   1.386       .  A
C1050      C1061   1.406       .  A
C1051      C1052   1.374       .  A
C1051      H1063   1.082       .  S
C1052      H1064   1.083       .  S
C1053      C1054   1.372   1_554  A
C1053      H1065   1.082   1_554  S
C1054      H1066   1.082       .  S
C1055      C1056   1.373       .  A
C1055      H1067   1.082       .  S
C1056      H1068   1.082       .  S
C1057      C1058   1.371       .  A
C1057      H1069   1.082       .  S
C1058      H1070   1.082       .  S
C1059      C1302   1.484       .  S
C1060      C1274   1.473       .  S
C1061      C1246   1.477       .  S
C1062      C1330   1.475       .  S
C1073      C2866   1.531       .  S
C1073      C1079   1.546       .  S
C1073      C1077   1.541       .  S
C1073      C1205   1.549       .  S
C1074      C2865   1.531       .  S
C1074      H1081   1.086       .  S
C1074      C1075   1.364       .  D
C1075      C2868   1.554       .  S
C1075      C1681   1.496       .  S
C1076      C2867   1.554       .  S
C1076      C1080   1.549       .  S
C1076      C1078   1.552       .  S
C1076      H1082   1.107       .  S
C1077      H1083   1.079       .  S
C1077      C1078   1.368       .  D
C1078      C1709   1.507       .  S
C1079      H1084   1.086       .  S
C1079      C1080   1.374       .  D
C1080      C1177   1.508       .  S
C1085      C1086   1.547       .  S
C1085      C1089   1.543       .  S
C1085      C1778   1.555       .  S
C1086      H1093   1.080       .  S
C1087      C1088   1.547   1_545  S
C1087      C1162   1.498       .  S
C1088      C1092   1.542       .  S
C1088      C1090   1.552   1_565  S
C1088      H1094   1.108       .  S
C1089      H1095   1.085       .  S
C1090      C1134   1.509       .  S
C1091      H1096   1.086       .  S
C1091      C1092   1.366   1_545  D
C1092      C1750   1.494       .  S
C1097      C1098   1.536       .  S
C1097      C1103   1.542       .  S
C1097      C2893   1.548       .  S
C1097      C1401   1.553       .  S
C1098      H1105   1.086       .  S
C1098      C1099   1.364       .  D
C1099      C1100   1.544       .  S
C1099      C1470   1.489       .  S
C1100      C1104   1.544       .  S
C1100      C2894   1.554       .  S
C1100      H1106   1.109       .  S
C1101      C2889   1.545       .  S
C1101      H1107   1.078       .  S
C1101      C1102   1.371       .  D
C1102      C2892   1.554   1_455  S
C1102      C1498   1.515       .  S
C1103      H1108   1.086       .  S
C1103      C1104   1.371       .  D
C1104      C1442   1.497       .  S
C1109      C1110   1.547       .  S
C1109      C1113   1.544       .  S
C1109      C1513   1.554       .  S
C1110      H1117   1.082       .  S
C1111      C1112   1.547   1_545  S
C1111      C1373   1.499       .  S
C1112      C1116   1.542       .  S
C1112      C1114   1.547   1_565  S
C1112      H1118   1.110       .  S
C1113      H1119   1.086       .  S
C1114      C1358   1.497       .  S
C1115      H1120   1.086       .  S
C1115      C1116   1.370   1_545  D
C1116      C1541   1.492       .  S
C1121      C1122   1.418       .  A
C1122      C1123   1.418       .  A
C1122      N1127   1.437       .  S
C1123      C1124   1.411       .  A
C1123      H1128   1.083       .  S
C1124      C1129   1.513       .  S
C1125      C1126   1.408       .  A
C1125      N1130   1.439       .  S
C1126      H1131   1.081       .  S
N1127      H1147   1.045       .  S
N1127      H1148   1.046       .  S
C1129      C1136   1.417   1_565  A
N1130      H1145   1.045       .  S
N1130      H1146   1.046       .  S
C1132      C1133   1.411       .  A
C1132      H1137   1.084       .  S
C1133      N1138   1.431       .  S
C1134      C1135   1.409       .  A
C1135      C1136   1.412       .  A
C1135      H1139   1.083       .  S
C1136      N1140   1.438       .  S
N1138      H1141   1.045       .  S
N1138      H1142   1.046       .  S
N1140      H1143   1.046       .  S
N1140      H1144   1.046       .  S
C1149      C1150   1.420       .  A
C1149      C1154   1.413       .  A
C1150      C1151   1.418       .  A
C1151      C1152   1.406       .  A
C1152      C1157   1.493       .  S
C1152      C1153   1.405       .  A
C1153      C1154   1.405       .  A
C1153      N1158   1.438       .  S
C1154      H1159   1.082       .  S
N1155      H1175   1.046       .  S
N1155      H1176   1.046       .  S
C1157      C1164   1.411       .  A
N1158      H1173   1.045       .  S
N1158      H1174   1.046       .  S
C1160      C1161   1.409       .  A
C1160      H1165   1.084       .  S
C1161      N1166   1.438       .  S
C1162      C1163   1.406   1_545  A
C1163      C1164   1.415       .  A
C1163      H1167   1.084       .  S
C1164      N1168   1.437       .  S
N1166      H1169   1.046       .  S
N1166      H1170   1.046       .  S
N1168      H1171   1.046       .  S
N1168      H1172   1.046       .  S
C1177      C2970   1.419       .  A
C1177      C1182   1.410       .  A
C1178      C2969   1.418   1_455  A
C1178      C1179   1.413       .  A
C1178      N1183   1.436       .  S
C1179      C2972   1.402   1_455  A
C1179      H1184   1.084       .  S
C1180      C1185   1.492       .  S
C1180      C2971   1.402       .  A
C1180      C1181   1.409       .  A
C1181      C1182   1.411       .  A
C1181      N1186   1.438       .  S
C1182      H1187   1.083       .  S
N1183      H1203   1.043       .  S
N1183      H1204   1.045       .  S
C1185      C2980   1.401       .  A
C1185      C1192   1.412       .  A
N1186      H1201   1.046       .  S
N1186      H1202   1.046       .  S
C1188      C2977   1.401   1_455  A
C1188      C1189   1.408       .  A
C1188      H1193   1.084       .  S
C1189      C2982   1.416   1_455  A
C1189      N1194   1.439       .  S
C1190      C2981   1.417       .  A
C1190      C1191   1.407       .  A
C1191      C1192   1.414       .  A
C1191      H1195   1.084       .  S
C1192      N1196   1.437       .  S
N1194      H1197   1.046       .  S
N1194      H1198   1.046       .  S
N1196      H1199   1.046       .  S
N1196      H1200   1.046       .  S
C1205      C2998   1.418       .  A
C1205      C1210   1.417       .  A
C1206      C2997   1.419       .  A
C1206      C1207   1.408       .  A
C1206      N1211   1.433       .  S
C1207      C3000   1.402       .  A
C1207      H1212   1.084       .  S
C1208      C1213   1.493       .  S
C1208      C2999   1.402       .  A
C1208      C1209   1.408       .  A
C1209      C1210   1.410       .  A
C1209      N1214   1.439       .  S
C1210      H1215   1.074       .  S
N1211      H1231   1.046       .  S
N1211      H1232   1.045       .  S
C1213      C3008   1.405       .  A
C1213      C1220   1.407       .  A
N1214      H1229   1.045       .  S
N1214      H1230   1.046       .  S
C1216      C3005   1.406       .  A
C1216      C1217   1.417       .  A
C1216      H1221   1.084       .  S
C1217      C3010   1.421       .  A
C1217      N1222   1.438       .  S
C1218      C3009   1.421       .  A
C1218      C1219   1.412       .  A
C1219      C1220   1.404       .  A
C1219      H1223   1.083       .  S
C1220      N1224   1.439       .  S
N1222      H1225   1.046       .  S
N1222      H1226   1.046       .  S
N1224      H1227   1.045       .  S
N1224      H1228   1.046       .  S
C1233      C1234   1.417       .  A
C1233      C1238   1.404   1_556  A
C1234      C1235   1.401       .  A
C1234      N1239   1.439       .  S
C1235      C1236   1.397       .  A
C1235      H1240   1.084       .  S
C1236      C1241   1.462   1_556  S
C1236      C1237   1.404   1_556  A
C1237      C1238   1.397       .  A
C1237      N1242   1.438       .  S
C1238      H1243   1.084       .  S
N1239      H1259   1.046       .  S
N1239      H1260   1.046       .  S
C1241      C1244   1.398   1_554  A
C1241      C1248   1.407       .  A
N1242      H1257   1.046       .  S
N1242      H1258   1.045       .  S
C1244      C1245   1.396       .  A
C1244      H1249   1.084       .  S
C1245      C1246   1.407   1_556  A
C1245      N1250   1.432       .  S
C1246      C1247   1.402       .  A
C1247      C1248   1.400       .  A
C1247      H1251   1.084       .  S
C1248      N1252   1.438       .  S
N1250      H1253   1.046       .  S
N1250      H1254   1.045       .  S
N1252      H1255   1.046       .  S
N1252      H1256   1.045       .  S
C1261      C1262   1.418       .  A
C1261      C1266   1.407   1_554  A
C1262      C1263   1.401       .  A
C1262      N1267   1.438       .  S
C1263      C1264   1.397   1_554  A
C1263      H1268   1.084       .  S
C1264      C1269   1.465       .  S
C1264      C1265   1.404       .  A
C1265      C1266   1.401       .  A
C1265      N1270   1.438       .  S
C1266      H1271   1.081       .  S
N1267      H1287   1.046       .  S
N1267      H1288   1.046       .  S
C1269      C1272   1.400       .  A
C1269      C1276   1.407   1_556  A
N1270      H1285   1.046       .  S
N1270      H1286   1.045       .  S
C1272      C1273   1.402       .  A
C1272      H1277   1.084       .  S
C1273      C1274   1.409   1_556  A
C1273      N1278   1.438       .  S
C1274      C1275   1.399       .  A
C1275      C1276   1.398       .  A
C1275      H1279   1.084       .  S
C1276      N1280   1.438       .  S
N1278      H1281   1.046       .  S
N1278      H1282   1.045       .  S
N1280      H1283   1.046       .  S
N1280      H1284   1.045       .  S
C1289      C1290   1.419   1_556  A
C1289      C1294   1.406       .  A
C1290      C1291   1.401       .  A
C1290      N1295   1.439       .  S
C1291      C1292   1.397       .  A
C1291      H1296   1.084       .  S
C1292      C1297   1.472       .  S
C1292      C1293   1.406   1_554  A
C1293      C1294   1.403       .  A
C1293      N1298   1.438       .  S
C1294      H1299   1.084       .  S
N1295      H1315   1.046       .  S
N1295      H1316   1.046       .  S
C1297      C1300   1.402       .  A
C1297      C1304   1.407   1_554  A
N1298      H1313   1.046       .  S
N1298      H1314   1.046       .  S
C1300      C1301   1.403       .  A
C1300      H1305   1.084       .  S
C1301      C1302   1.410       .  A
C1301      N1306   1.438       .  S
C1302      C1303   1.403   1_554  A
C1303      C1304   1.401       .  A
C1303      H1307   1.084       .  S
C1304      N1308   1.438       .  S
N1306      H1309   1.046       .  S
N1306      H1310   1.045       .  S
N1308      H1311   1.046       .  S
N1308      H1312   1.045       .  S
C1317      C1318   1.412       .  A
C1317      C1322   1.406   1_554  A
C1318      C1319   1.401       .  A
C1318      N1323   1.435       .  S
C1319      C1320   1.398       .  A
C1319      H1324   1.084       .  S
C1320      C1325   1.474       .  S
C1320      C1321   1.408   1_554  A
C1321      C1322   1.404       .  A
C1321      N1326   1.438       .  S
C1322      H1327   1.084       .  S
N1323      H1343   1.046       .  S
N1323      H1344   1.045       .  S
C1325      C1328   1.401   1_554  A
C1325      C1332   1.411       .  A
N1326      H1341   1.046       .  S
N1326      H1342   1.046       .  S
C1328      C1329   1.400       .  A
C1328      H1333   1.084       .  S
C1329      C1330   1.407   1_556  A
C1329      N1334   1.438       .  S
C1330      C1331   1.400       .  A
C1331      C1332   1.403       .  A
C1331      H1335   1.084       .  S
C1332      N1336   1.437       .  S
N1334      H1337   1.046       .  S
N1334      H1338   1.046       .  S
N1336      H1339   1.046       .  S
N1336      H1340   1.045       .  S
C1345      C1350   1.405       .  A
C1346      C1347   1.411       .  A
C1346      N1351   1.439       .  S
C1347      H1352   1.084       .  S
C1348      C1353   1.500       .  S
C1348      C1349   1.415       .  A
C1349      C1350   1.413       .  A
C1349      N1354   1.437       .  S
C1350      H1355   1.083       .  S
N1351      H1371   1.046       .  S
N1351      H1372   1.046       .  S
C1353      C1356   1.404   1_565  A
N1354      H1369   1.046       .  S
N1354      H1370   1.045       .  S
C1356      C1357   1.409       .  A
C1356      H1361   1.083       .  S
C1357      C1358   1.415       .  A
C1357      N1362   1.438       .  S
C1359      C1360   1.417       .  A
C1359      H1363   1.083       .  S
C1360      N1364   1.437       .  S
N1362      H1365   1.045       .  S
N1362      H1366   1.046       .  S
N1364      H1367   1.046       .  S
N1364      H1368   1.046       .  S
C1373      C1374   1.415   1_545  A
C1374      C1375   1.415       .  A
C1374      N1379   1.437       .  S
C1375      H1380   1.083       .  S
C1376      C1381   1.498       .  S
C1376      C1377   1.414       .  A
C1377      C1378   1.413       .  A
C1377      N1382   1.438       .  S
C1378      H1383   1.084       .  S
N1379      H1399   1.045       .  S
N1379      H1400   1.045       .  S
C1381      C1384   1.401       .  A
N1382      H1397   1.046       .  S
N1382      H1398   1.046       .  S
C1384      C1385   1.406       .  A
C1384      H1389   1.084       .  S
C1385      N1390   1.434       .  S
C1386      C1387   1.407       .  A
C1387      C1388   1.414       .  A
C1387      H1391   1.083       .  S
C1388      N1392   1.437   1_565  S
N1390      H1393   1.046       .  S
N1390      H1394   1.046       .  S
N1392      H1395   1.046       .  S
N1392      H1396   1.045       .  S
C1401      C1402   1.421       .  A
C1401      C3198   1.416       .  A
C1402      C1403   1.408       .  A
C1402      N1407   1.432       .  S
C1403      C3196   1.402       .  A
C1403      H1408   1.084       .  S
C1404      C3201   1.493       .  S
C1404      C3195   1.401       .  A
C1404      C1405   1.407   1_655  A
C1405      C1406   1.411       .  A
C1405      N1410   1.438       .  S
C1406      C3193   1.417   1_455  A
C1406      H1411   1.074       .  S
N1407      H1427   1.046       .  S
N1407      H1428   1.045       .  S
C1409      C3196   1.496       .  S
C1409      C1412   1.406       .  A
C1409      C3208   1.407       .  A
N1410      H1425   1.045       .  S
N1410      H1426   1.046       .  S
C1412      C1413   1.416       .  A
C1412      H1417   1.083       .  S
C1413      C1414   1.420       .  A
C1413      N1418   1.437       .  S
C1414      C3207   1.413       .  A
C1415      C3206   1.412       .  A
C1415      C1416   1.405       .  A
C1415      H1419   1.083   1_655  S
C1416      C3201   1.407       .  A
C1416      N1420   1.438   1_655  S
N1418      H1421   1.046       .  S
N1418      H1422   1.046       .  S
N1420      H1423   1.045       .  S
N1420      H1424   1.046       .  S
C1429      C1430   1.419       .  A
C1429      C3226   1.409       .  A
C1430      C1431   1.406       .  A
C1430      N1435   1.437       .  S
C1431      C3224   1.399       .  A
C1431      H1436   1.084       .  S
C1432      C1437   1.494       .  S
C1432      C3223   1.402       .  A
C1432      C1433   1.412   1_655  A
C1433      C1434   1.415       .  A
C1433      N1438   1.437       .  S
C1434      C3221   1.407   1_455  A
C1434      H1439   1.083       .  S
N1435      H1455   1.046       .  S
N1435      H1456   1.046       .  S
C1437      C3232   1.402       .  A
C1437      C1444   1.409   1_655  A
N1438      H1453   1.046       .  S
N1438      H1454   1.046       .  S
C1440      C3229   1.404       .  A
C1440      C1441   1.411       .  A
C1440      H1445   1.084       .  S
C1441      C1442   1.412       .  A
C1441      N1446   1.432       .  S
C1442      C3235   1.405       .  A
C1443      C3234   1.411       .  A
C1443      C1444   1.411       .  A
C1443      H1447   1.083       .  S
C1444      N1448   1.438       .  S
N1446      H1449   1.046       .  S
N1446      H1450   1.045       .  S
N1448      H1451   1.046       .  S
N1448      H1452   1.046       .  S
C1457      C1458   1.413       .  A
C1457      C1462   1.404       .  A
C1458      C1459   1.408       .  A
C1458      N1463   1.438       .  S
C1459      C1460   1.405       .  A
C1459      H1464   1.083       .  S
C1460      C1465   1.498       .  S
C1460      C1461   1.416       .  A
C1461      C1462   1.412       .  A
C1461      N1466   1.438       .  S
C1462      H1467   1.084       .  S
N1463      H1483   1.046       .  S
N1463      H1484   1.046       .  S
C1465      C1468   1.404       .  A
C1465      C1472   1.416       .  A
N1466      H1481   1.046       .  S
N1466      H1482   1.046       .  S
C1468      C1469   1.409       .  A
C1468      H1473   1.084       .  S
C1469      C1470   1.414       .  A
C1469      N1474   1.438       .  S
C1470      C1471   1.400       .  A
C1471      C1472   1.411       .  A
C1471      H1475   1.084       .  S
C1472      N1476   1.437       .  S
N1474      H1477   1.046       .  S
N1474      H1478   1.044       .  S
N1476      H1479   1.046       .  S
N1476      H1480   1.046       .  S
C1485      C1486   1.416       .  A
C1485      C1490   1.408       .  A
C1486      C1487   1.414       .  A
C1486      N1491   1.438       .  S
C1487      C1488   1.408       .  A
C1487      H1492   1.083       .  S
C1488      C1493   1.500       .  S
C1488      C1489   1.410       .  A
C1489      C1490   1.409       .  A
C1489      N1494   1.438       .  S
C1490      H1495   1.084       .  S
N1491      H1511   1.045       .  S
N1491      H1512   1.046       .  S
C1493      C1496   1.405       .  A
C1493      C1500   1.410       .  A
N1494      H1509   1.046       .  S
N1494      H1510   1.046       .  S
C1496      C1497   1.415       .  A
C1496      H1501   1.083       .  S
C1497      C1498   1.419       .  A
C1497      N1502   1.436       .  S
C1498      C1499   1.413       .  A
C1499      C1500   1.410       .  A
C1499      H1503   1.082       .  S
C1500      N1504   1.438       .  S
N1502      H1505   1.045       .  S
N1502      H1506   1.045       .  S
N1504      H1507   1.046       .  S
N1504      H1508   1.046       .  S
C1513      C1514   1.420       .  A
C1513      C1518   1.415       .  A
C1514      C1515   1.410       .  A
C1514      N1519   1.433       .  S
C1515      C1516   1.404       .  A
C1515      H1520   1.084       .  S
C1516      C1521   1.504       .  S
C1516      C1517   1.412       .  A
C1517      C1518   1.414       .  A
C1517      N1522   1.438       .  S
C1518      H1523   1.076       .  S
N1519      H1539   1.045       .  S
N1519      H1540   1.045       .  S
C1521      C1524   1.406       .  A
C1521      C1528   1.416       .  A
N1522      H1537   1.045       .  S
N1522      H1538   1.045       .  S
C1524      C1525   1.411       .  A
C1524      H1529   1.083       .  S
C1525      C1526   1.414       .  A
C1525      N1530   1.439       .  S
C1526      C1527   1.405       .  A
C1527      C1528   1.416       .  A
C1527      H1531   1.084       .  S
C1528      N1532   1.437       .  S
N1530      H1533   1.046       .  S
N1530      H1534   1.046       .  S
N1532      H1535   1.046       .  S
N1532      H1536   1.046       .  S
C1541      C1542   1.411       .  A
C1541      C1546   1.405       .  A
C1542      C1543   1.408       .  A
C1542      N1547   1.432       .  S
C1543      C1544   1.403       .  A
C1543      H1548   1.084       .  S
C1544      C1549   1.487       .  S
C1544      C1545   1.410       .  A
C1545      C1546   1.408       .  A
C1545      N1550   1.438       .  S
C1546      H1551   1.083       .  S
N1547      H1567   1.045       .  S
N1547      H1568   1.045       .  S
C1549      C1552   1.403       .  A
C1549      C1556   1.409       .  A
N1550      H1565   1.046       .  S
N1550      H1566   1.045       .  S
C1552      C1553   1.412       .  A
C1552      H1557   1.084       .  S
C1553      C1554   1.416       .  A
C1553      N1558   1.437       .  S
C1554      C1555   1.408       .  A
C1555      C1556   1.408       .  A
C1555      H1559   1.082       .  S
C1556      N1560   1.439       .  S
N1558      H1561   1.046       .  S
N1558      H1562   1.046       .  S
N1560      H1563   1.046       .  S
N1560      H1564   1.045       .  S
C1569      C1570   1.414       .  A
C1569      C1574   1.404       .  A
C1570      C1571   1.400       .  A
C1570      N1575   1.439       .  S
C1571      C1572   1.399       .  A
C1571      H1576   1.084       .  S
C1572      C1577   1.472       .  S
C1572      C1573   1.409       .  A
C1573      C1574   1.403       .  A
C1573      N1578   1.438       .  S
C1574      H1579   1.084       .  S
N1575      H1595   1.045       .  S
N1575      H1596   1.046       .  S
C1577      C1580   1.401       .  A
C1577      C1584   1.410       .  A
N1578      H1593   1.046       .  S
N1578      H1594   1.046       .  S
C1580      C1581   1.400       .  A
C1580      H1585   1.084       .  S
C1581      C1582   1.407       .  A
C1581      N1586   1.438       .  S
C1582      C1583   1.400       .  A
C1583      C1584   1.402       .  A
C1583      H1587   1.084       .  S
C1584      N1588   1.438       .  S
N1586      H1589   1.046       .  S
N1586      H1590   1.045       .  S
N1588      H1591   1.046       .  S
N1588      H1592   1.046       .  S
C1597      C1598   1.406       .  A
C1597      C1602   1.400       .  A
C1598      C1599   1.402       .  A
C1598      N1603   1.437       .  S
C1599      C1600   1.404       .  A
C1599      H1604   1.084       .  S
C1600      C1605   1.477       .  S
C1600      C1601   1.411       .  A
C1601      C1602   1.401       .  A
C1601      N1606   1.438       .  S
C1602      H1607   1.084       .  S
N1603      H1623   1.046       .  S
N1603      H1624   1.046       .  S
C1605      C1608   1.402       .  A
C1605      C1612   1.409       .  A
N1606      H1621   1.046       .  S
N1606      H1622   1.046       .  S
C1608      C1609   1.403       .  A
C1608      H1613   1.084       .  S
C1609      C1610   1.415       .  A
C1609      N1614   1.439       .  S
C1610      C1611   1.402       .  A
C1611      C1612   1.401       .  A
C1611      H1615   1.084       .  S
C1612      N1616   1.438       .  S
N1614      H1617   1.046       .  S
N1614      H1618   1.046       .  S
N1616      H1619   1.046       .  S
N1616      H1620   1.046       .  S
C1625      C1626   1.417       .  A
C1625      C1630   1.403       .  A
C1626      C1627   1.403       .  A
C1626      N1631   1.438       .  S
C1627      C1628   1.401       .  A
C1627      H1632   1.084       .  S
C1628      C1633   1.476       .  S
C1628      C1629   1.407       .  A
C1629      C1630   1.403       .  A
C1629      N1634   1.438       .  S
C1630      H1635   1.084       .  S
N1631      H1651   1.043       .  S
N1631      H1652   1.046       .  S
C1633      C1636   1.399       .  A
C1633      C1640   1.408       .  A
N1634      H1649   1.046       .  S
N1634      H1650   1.045       .  S
C1636      C1637   1.403       .  A
C1636      H1641   1.084       .  S
C1637      C1638   1.416       .  A
C1637      N1642   1.433       .  S
C1638      C1639   1.405       .  A
C1639      C1640   1.405       .  A
C1639      H1643   1.082       .  S
C1640      N1644   1.438       .  S
N1642      H1645   1.046       .  S
N1642      H1646   1.046       .  S
N1644      H1647   1.045       .  S
N1644      H1648   1.045       .  S
C1653      C1654   1.420       .  A
C1653      C1658   1.410       .  A
C1654      C1655   1.401       .  A
C1654      N1659   1.438       .  S
C1655      C1656   1.397       .  A
C1655      H1660   1.084       .  S
C1656      C1661   1.472       .  S
C1656      C1657   1.406       .  A
C1657      C1658   1.402       .  A
C1657      N1662   1.438       .  S
C1658      H1663   1.083       .  S
N1659      H1679   1.045       .  S
N1659      H1680   1.046       .  S
C1661      C1664   1.400       .  A
C1661      C1668   1.409       .  A
N1662      H1677   1.045       .  S
N1662      H1678   1.045       .  S
C1664      C1665   1.395       .  A
C1664      H1669   1.084       .  S
C1665      C1666   1.416       .  A
C1665      N1670   1.439       .  S
C1666      C1667   1.401       .  A
C1667      C1668   1.400       .  A
C1667      H1671   1.084       .  S
C1668      N1672   1.438       .  S
N1670      H1673   1.046       .  S
N1670      H1674   1.042       .  S
N1672      H1675   1.046       .  S
N1672      H1676   1.045       .  S
C1681      C1682   1.416       .  A
C1681      C1686   1.401       .  A
C1682      C1683   1.411       .  A
C1682      N1687   1.439       .  S
C1683      C1684   1.405       .  A
C1683      H1688   1.083       .  S
C1684      C1689   1.502       .  S
C1684      C1685   1.416       .  A
C1685      C1686   1.412       .  A
C1685      N1690   1.438       .  S
C1686      H1691   1.078       .  S
N1687      H1707   1.044       .  S
N1687      H1708   1.045       .  S
C1689      C1692   1.405       .  A
C1689      C1696   1.417       .  A
N1690      H1705   1.046       .  S
N1690      H1706   1.046       .  S
C1692      C1693   1.409       .  A
C1692      H1697   1.083       .  S
C1693      C1694   1.411       .  A
C1693      N1698   1.437       .  S
C1694      C1695   1.406       .  A
C1695      C1696   1.415       .  A
C1695      H1699   1.084       .  S
C1696      N1700   1.438       .  S
N1698      H1701   1.045       .  S
N1698      H1702   1.046       .  S
N1700      H1703   1.046       .  S
N1700      H1704   1.046       .  S
C1709      C1710   1.411       .  A
C1709      C1714   1.413       .  A
C1710      C1711   1.407       .  A
C1710      N1715   1.428       .  S
C1711      C1712   1.405       .  A
C1711      H1716   1.084       .  S
C1712      C1717   1.495       .  S
C1712      C1713   1.410       .  A
C1713      C1714   1.408       .  A
C1713      N1718   1.438       .  S
C1714      H1719   1.083       .  S
N1715      H1735   1.046       .  S
N1715      H1736   1.045       .  S
C1717      C1720   1.406       .  A
C1717      C1724   1.410       .  A
N1718      H1733   1.045       .  S
N1718      H1734   1.046       .  S
C1720      C1721   1.412       .  A
C1720      H1725   1.083       .  S
C1721      C1722   1.414       .  A
C1721      N1726   1.435       .  S
C1722      C1723   1.409       .  A
C1723      C1724   1.405       .  A
C1723      H1727   1.083       .  S
C1724      N1728   1.438       .  S
N1726      H1729   1.046       .  S
N1726      H1730   1.043       .  S
N1728      H1731   1.046       .  S
N1728      H1732   1.046       .  S
C1737      C1738   1.412       .  A
C1737      C1742   1.408       .  A
C1738      C1739   1.413       .  A
C1738      N1743   1.434       .  S
C1739      C1740   1.405       .  A
C1739      H1744   1.084       .  S
C1740      C1745   1.497       .  S
C1740      C1741   1.411       .  A
C1741      C1742   1.411       .  A
C1741      N1746   1.438       .  S
C1742      H1747   1.084       .  S
N1743      H1763   1.046       .  S
N1743      H1764   1.046       .  S
C1745      C1748   1.405       .  A
C1745      C1752   1.414       .  A
N1746      H1761   1.046       .  S
N1746      H1762   1.046       .  S
C1748      C1749   1.410       .  A
C1748      H1753   1.084       .  S
C1749      C1750   1.409       .  A
C1749      N1754   1.432       .  S
C1750      C1751   1.405       .  A
C1751      C1752   1.412       .  A
C1751      H1755   1.084       .  S
C1752      N1756   1.438       .  S
N1754      H1757   1.046       .  S
N1754      H1758   1.045       .  S
N1756      H1759   1.046       .  S
N1756      H1760   1.046       .  S
C1765      C1766   1.417       .  A
C1765      C1770   1.408       .  A
C1766      C1767   1.408       .  A
C1766      N1771   1.439       .  S
C1767      C1768   1.401       .  A
C1767      H1772   1.084       .  S
C1768      C1773   1.493       .  S
C1768      C1769   1.412       .  A
C1769      C1770   1.415       .  A
C1769      N1774   1.437       .  S
C1770      H1775   1.084       .  S
N1771      H1791   1.046       .  S
N1771      H1792   1.046       .  S
C1773      C1776   1.401       .  A
C1773      C1780   1.406       .  A
N1774      H1789   1.046       .  S
N1774      H1790   1.045       .  S
C1776      C1777   1.412       .  A
C1776      H1781   1.084       .  S
C1777      C1778   1.421       .  A
C1777      N1782   1.433       .  S
C1778      C1779   1.417       .  A
C1779      C1780   1.412       .  A
C1779      H1783   1.074       .  S
C1780      N1784   1.438       .  S
N1782      H1785   1.045       .  S
N1782      H1786   1.046       .  S
N1784      H1787   1.045       .  S
N1784      H1788   1.045       .  S
O1793     Zr1829   2.464       .  S
O1793      C1804   1.297       .  A
O1794     Zr1828   2.467       .  S
O1794      C1805   1.297       .  A
O1795     Zr1801   2.433       .  S
O1795      C1806   1.290       .  A
O1796     Zr1801   2.424       .  S
O1796      C1807   1.289       .  A
O1797     Zr1831   2.431       .  S
O1797      C1807   1.291       .  A
O1798     Zr1830   2.430       .  S
O1798      C1806   1.290       .  A
O1799     Zr1801   2.431       .  S
O1799      C1805   1.291       .  A
O1800     Zr1801   2.449       .  S
O1800      C1804   1.294       .  A
Zr1801     O1802   2.341       .  S
Zr1801     O1803   2.329       .  S
Zr1801     O1811   2.339       .  S
Zr1801     O1809   2.341       .  S
O1802     Zr1828   2.347       .  S
O1802     Zr1831   2.338       .  S
O1803     Zr1829   2.347       .  S
O1803     Zr1830   2.337       .  S
C1804      C2661   1.493       .  S
C1805      C2422   1.484       .  S
C1806      C2465   1.474       .  S
C1807      C2506   1.481       .  S
H1808      O1809   0.966       .  S
O1809     Zr1828   2.357       .  S
O1809     Zr1830   2.344       .  S
H1810      O1811   0.965       .  S
O1811     Zr1829   2.349       .  S
O1811     Zr1831   2.347       .  S
O1812     Zr1828   2.479       .  S
O1812      C1835   1.300       .  A
O1813     Zr1829   2.467       .  S
O1813      C1836   1.298       .  A
O1814     Zr1830   2.442       .  S
O1814      C1837   1.293       .  A
O1815     Zr1831   2.438       .  S
O1815      C1838   1.293       .  A
O1816     Zr1831   2.432       .  S
O1816      C1839   1.291       .  A
O1817     Zr1830   2.437       .  S
O1817      C1840   1.293       .  A
O1818     Zr1832   2.415       .  S
O1818      C1841   1.287       .  A
O1819     Zr1832   2.411       .  S
O1819      C1842   1.287       .  A
O1820     Zr1830   2.433       .  S
O1820      C1841   1.292       .  A
O1821     Zr1831   2.439       .  S
O1821      C1842   1.292       .  A
O1822     Zr1828   2.466       .  S
O1822      C1837   1.298       .  A
O1823     Zr1829   2.468       .  S
O1823      C1840   1.298       .  A
O1824     Zr1829   2.470       .  S
O1824      C1839   1.298       .  A
O1825     Zr1828   2.474       .  S
O1825      C1838   1.299       .  A
O1826     Zr1832   2.433       .  S
O1826      C1835   1.292       .  A
O1827     Zr1832   2.441       .  S
O1827      C1836   1.293       .  A
Zr1828     O1834   2.352       .  S
Zr1828     O1846   2.349       .  S
Zr1829     O1833   2.352       .  S
Zr1829     O1844   2.358       .  S
Zr1830     O1834   2.335       .  S
Zr1830     O1844   2.345       .  S
Zr1831     O1833   2.339       .  S
Zr1831     O1846   2.337       .  S
Zr1832     O1833   2.335       .  S
Zr1832     O1834   2.335       .  S
Zr1832     O1846   2.342       .  S
Zr1832     O1844   2.340       .  S
C1835      C2450   1.494       .  S
C1836      C2633   1.491       .  S
C1837      C2353   1.488       .  S
C1838      C2381   1.497       .  S
C1839      C2590   1.483       .  S
C1840      C2618   1.502       .  S
C1841      C2549   1.486       .  S
C1842      C2534   1.472       .  S
H1843      O1844   0.967       .  S
H1845      O1846   0.965       .  S
N1847      H1879   1.040       .  S
N1847      C2748   1.351   1_545  A
N1847      C1851   1.354       .  A
N1848      C1856   1.348       .  A
N1849      H1880   1.039       .  S
N1849      C2750   1.352   1_545  A
N1849      C1853   1.350       .  A
N1850      C1858   1.347       .  A
C1851      C1859   1.385       .  A
C1851      C1867   1.410       .  A
C1852      N2743   1.350       .  A
C1852      C1868   1.409       .  A
C1852      C1860   1.387       .  A
C1853      C1861   1.388       .  A
C1853      C1870   1.412       .  A
C1854      N2745   1.351       .  A
C1854      C1869   1.410       .  A
C1854      C1862   1.386       .  A
C1855      C1867   1.408       .  A
C1855      C1863   1.386       .  A
C1856      C1870   1.408       .  A
C1856      C1864   1.386       .  A
C1857      C1865   1.386       .  A
C1857      C1868   1.407       .  A
C1858      C1866   1.387       .  A
C1858      C1869   1.406       .  A
C1859      C2756   1.373       .  A
C1859      H1871   1.082       .  S
C1860      C2755   1.375       .  A
C1860      H1872   1.082       .  S
C1861      C2758   1.375       .  A
C1861      H1873   1.082       .  S
C1862      C2757   1.373       .  A
C1862      H1874   1.082       .  S
C1863      H1875   1.083       .  S
C1864      H1876   1.082       .  S
C1865      H1877   1.082       .  S
C1866      H1878   1.083       .  S
C1867      C2478   1.482       .  S
C1868      C2562   1.475       .  S
C1869      C2521   1.474       .  S
C1870      C2493   1.474       .  S
O1881     Zr1917   2.484       .  S
O1881      C1892   1.301       .  A
O1882     Zr1916   2.466       .  S
O1882      C1893   1.298       .  A
O1883      C1894   1.289       .  A
O1884     Zr1889   2.438       .  S
O1884      C1895   1.293       .  A
O1885     Zr1919   2.439       .  S
O1885      C1895   1.292       .  A
O1886     Zr1918   2.437   1_556  S
O1886      C1894   1.292       .  A
O1887     Zr1889   2.439   1_554  S
O1887      C1893   1.293       .  A
O1888     Zr1889   2.439       .  S
O1888      C1892   1.293       .  A
Zr1889     O1890   2.338   1_556  S
Zr1889     O1899   2.343       .  S
O1890     Zr1916   2.359       .  S
O1890     Zr1919   2.340   1_554  S
O1891     Zr1918   2.338   1_556  S
C1892      C2325   1.505       .  S
C1893      C2086   1.496       .  S
C1894      C2129   1.486       .  S
C1895      C2157   1.493       .  S
H1896      O1897   0.967       .  S
O1897     Zr1918   2.339       .  S
H1898      O1899   0.966       .  S
O1899     Zr1917   2.359       .  S
O1899     Zr1919   2.340       .  S
O1900     Zr2812   2.486   1_545  S
O1900      C1923   1.301       .  A
O1901     Zr2813   2.476   1_545  S
O1901      C1924   1.299       .  A
O1902     Zr1918   2.425       .  S
O1902      C1925   1.291       .  A
O1903     Zr1919   2.425   1_554  S
O1903      C1926   1.291       .  A
O1904     Zr1919   2.433       .  S
O1904      C2823   1.292       .  A
O1905     Zr1918   2.423   1_556  S
O1905      C2824   1.289       .  A
O1906      C1929   1.285   1_556  A
O1907     Zr1920   2.438       .  S
O1907      C1930   1.292       .  A
O1908     Zr2814   2.440   1_545  S
O1908      C1929   1.293   1_556  A
O1909     Zr2815   2.403   1_545  S
O1909      C1930   1.285       .  A
O1910      C1925   1.302       .  A
O1911      C1928   1.301       .  A
O1912     Zr2813   2.467       .  S
O1912      C1927   1.298       .  A
O1913     Zr1916   2.486       .  S
O1913      C1926   1.301       .  A
O1914     Zr1920   2.432   1_554  S
O1914      C1923   1.292       .  A
O1915     Zr1920   2.423       .  S
O1915      C1924   1.291       .  A
Zr1916     O2796   2.464       .  S
Zr1916     O2830   2.360       .  S
Zr1917     O2797   2.469       .  S
Zr1917     O2808   2.489       .  S
Zr1917     O2817   2.352       .  S
Zr1918     O2804   2.445       .  S
Zr1918     O2818   2.332       .  S
Zr1918     O2828   2.340   1_554  S
Zr1919     O2805   2.429       .  S
Zr1919     O2817   2.332       .  S
Zr1919     O2830   2.344   1_556  S
Zr1920     O1921   2.326       .  S
Zr1920     O1934   2.331   1_556  S
O1921     Zr2813   2.347   1_545  S
O1921     Zr2815   2.328   1_545  S
O1922     Zr2814   2.336   1_544  S
C1923      C2114   1.513   1_655  S
C1924      C2310   1.503       .  S
C1925      C2017   1.511       .  S
C1926      C2045   1.508       .  S
C1927      O2800   1.292       .  A
C1927      C3137   1.490       .  S
C1928      O2801   1.292       .  A
C1928      C3178   1.504       .  S
C1929      C2213   1.469       .  S
C1930      C2185   1.476       .  S
H1931      O1932   0.969       .  S
O1932     Zr2814   2.343   1_545  S
H1933      O1934   0.966       .  S
O1934     Zr2812   2.356   1_545  S
O1934     Zr2815   2.343   1_544  S
N1935      H1967   1.038       .  S
N1935      C1940   1.353       .  A
N1935      C1939   1.351       .  A
N1936      C1943   1.349       .  A
N1936      C1944   1.349       .  A
N1937      H1968   1.038       .  S
N1937      C1942   1.352       .  A
N1937      C1941   1.351       .  A
N1938      C1945   1.351       .  A
N1938      C1946   1.350       .  A
C1939      C1947   1.387   1_554  A
C1939      C1955   1.413       .  A
C1940      C1956   1.413       .  A
C1940      C1948   1.387   1_554  A
C1941      C1949   1.387       .  A
C1941      C1958   1.411       .  A
C1942      C1957   1.411       .  A
C1942      C1950   1.387       .  A
C1943      C1955   1.410       .  A
C1943      C1951   1.387       .  A
C1944      C1958   1.409       .  A
C1944      C1952   1.386       .  A
C1945      C1953   1.387       .  A
C1945      C1956   1.412       .  A
C1946      C1954   1.385       .  A
C1946      C1957   1.409       .  A
C1947      C1948   1.375       .  A
C1947      H1959   1.083       .  S
C1948      H1960   1.082       .  S
C1949      C1950   1.372       .  A
C1949      H1961   1.083   1_554  S
C1950      H1962   1.082   1_554  S
C1951      C1952   1.373       .  A
C1951      H1963   1.082       .  S
C1952      H1964   1.083       .  S
C1953      C1954   1.371       .  A
C1953      H1965   1.082       .  S
C1954      H1966   1.082       .  S
C1955      C2198   1.478       .  S
C1956      C2170   1.485       .  S
C1957      C2142   1.482       .  S
C1958      C2226   1.476       .  S
C1969      C1975   1.543   1_455  S
C1969      C1973   1.544   1_455  S
C1969      C2101   1.555       .  S
C1970      H1977   1.086       .  S
C1970      C1971   1.366       .  D
C1971      C2577   1.497       .  S
C1972      C1976   1.547   1_455  S
C1972      C1974   1.553   1_455  S
C1972      H1978   1.107       .  S
C1973      H1979   1.078       .  S
C1973      C1974   1.369       .  D
C1974      C2605   1.512       .  S
C1975      H1980   1.086       .  S
C1975      C1976   1.372       .  D
C1976      C2073   1.503       .  S
C1981      C1982   1.546       .  S
C1981      C2883   1.541       .  S
C1981      C1985   1.543       .  S
C1981      C2674   1.554       .  S
C1982      H1989   1.080       .  S
C1982      C2879   1.366       .  D
C1983      C1984   1.545       .  S
C1983      C2878   1.365       .  D
C1983      C2058   1.496       .  S
C1984      C1988   1.539       .  S
C1984      C1986   1.553       .  S
C1984      H1990   1.105       .  S
C1985      H1991   1.085       .  S
C1985      C2882   1.375       .  D
C1986      C2881   1.377       .  D
C1986      C2030   1.515       .  S
C1987      C2877   1.543       .  S
C1987      H1992   1.086       .  S
C1987      C1988   1.368       .  D
C1988      C2646   1.495       .  S
C1993      C1994   1.538   1_455  S
C1993      C1999   1.543       .  S
C1993      C2297   1.549       .  S
C1994      H2001   1.086       .  S
C1994      C1995   1.365       .  D
C1995      C1996   1.542   1_655  S
C1995      C2366   1.490       .  S
C1996      C2000   1.544       .  S
C1996      H2002   1.109   1_455  S
C1997      H2003   1.080       .  S
C1997      C1998   1.372       .  D
C1998      C2394   1.506       .  S
C1999      H2004   1.086       .  S
C1999      C2000   1.371       .  D
C2000      C2338   1.498       .  S
C2005      C2006   1.547       .  S
C2005      C2907   1.541       .  S
C2005      C2009   1.540       .  S
C2005      C2409   1.552       .  S
C2006      H2013   1.080       .  S
C2006      C2903   1.365       .  D
C2007      C2008   1.551       .  S
C2007      C2902   1.367       .  D
C2007      C2269   1.504       .  S
C2008      C2012   1.543       .  S
C2008      C2010   1.548       .  S
C2008      H2014   1.110       .  S
C2009      H2015   1.086       .  S
C2009      C2906   1.370       .  D
C2010      C2905   1.369       .  D
C2010      C2254   1.502       .  S
C2011      C2901   1.542       .  S
C2011      H2016   1.086       .  S
C2011      C2012   1.368       .  D
C2012      C2437   1.491       .  S
C2017      C2018   1.418       .  A
C2017      C2918   1.413       .  A
C2018      C2019   1.418       .  A
C2018      N2023   1.437       .  S
C2019      C2020   1.410       .  A
C2019      H2024   1.083       .  S
C2020      C2025   1.507       .  S
C2020      C2917   1.411       .  A
C2021      C2916   1.412       .  A
C2021      C2022   1.408       .  A
C2021      N2026   1.439   1_565  S
C2022      C2913   1.413       .  A
C2022      H2027   1.082       .  S
N2023      H2043   1.045       .  S
N2023      H2044   1.046       .  S
C2025      C2924   1.407       .  A
C2025      C2032   1.413       .  A
N2026      H2041   1.045       .  S
N2026      H2042   1.046       .  S
C2028      C2921   1.409       .  A
C2028      C2029   1.411       .  A
C2028      H2033   1.083       .  S
C2029      C2926   1.413   1_565  A
C2029      N2034   1.431       .  S
C2030      C2925   1.417       .  A
C2030      C2031   1.412       .  A
C2031      C2032   1.412       .  A
C2031      H2035   1.082       .  S
C2032      N2036   1.438       .  S
N2034      H2037   1.045       .  S
N2034      H2038   1.046       .  S
N2036      H2039   1.045       .  S
N2036      H2040   1.046       .  S
C2045      C2046   1.419       .  A
C2045      C2050   1.414       .  A
C2046      C2047   1.417       .  A
C2046      N2947   1.437       .  S
C2047      C2048   1.407       .  A
C2047      H2948   1.083       .  S
C2048      C2053   1.498       .  S
C2048      C2049   1.408       .  A
C2049      C2050   1.406       .  A
C2049      N2054   1.438       .  S
C2050      H2055   1.083       .  S
N2051      C2942   1.437       .  S
N2051      H2071   1.046   1_565  S
N2051      H2072   1.046       .  S
H2052      C2943   1.083       .  S
C2053      C2952   1.404       .  A
C2053      C2060   1.413       .  A
N2054      H2069   1.046       .  S
N2054      H2070   1.045       .  S
C2056      C2949   1.404   1_545  A
C2056      C2057   1.408       .  A
C2056      H2061   1.084       .  S
C2057      C2954   1.414       .  A
C2057      N2062   1.438       .  S
C2058      C2953   1.413       .  A
C2058      C2059   1.405       .  A
C2059      C2060   1.415       .  A
C2059      H2063   1.084       .  S
C2060      N2064   1.437       .  S
N2062      H2065   1.046       .  S
N2062      H2066   1.046       .  S
N2064      H2067   1.046       .  S
N2064      H2068   1.046       .  S
C2073      C2078   1.408       .  A
C2074      C2075   1.413       .  A
C2074      N2079   1.436       .  S
C2075      H2080   1.084       .  S
C2076      C2081   1.491       .  S
C2076      C2077   1.409       .  A
C2077      C2078   1.409       .  A
C2077      N2082   1.438       .  S
C2078      H2083   1.083       .  S
N2079      H2099   1.044       .  S
N2079      H2100   1.045       .  S
C2081      C2088   1.411       .  A
N2082      H2097   1.046       .  S
N2082      H2098   1.046       .  S
C2084      C2085   1.407       .  A
C2084      H2089   1.084       .  S
C2085      N2090   1.439       .  S
C2086      C2087   1.409       .  A
C2087      C2088   1.415       .  A
C2087      H2091   1.083       .  S
C2088      N2092   1.437       .  S
N2090      H2093   1.046       .  S
N2090      H2094   1.046       .  S
N2092      H2095   1.046       .  S
N2092      H2096   1.046       .  S
C2101      C2106   1.416   1_455  A
C2102      C2103   1.410       .  A
C2102      N2107   1.433       .  S
C2103      H2108   1.084       .  S
C2104      C2109   1.505       .  S
C2104      C2105   1.410   1_455  A
C2105      C2106   1.411       .  A
C2105      N2110   1.439       .  S
C2106      H2111   1.073       .  S
N2107      H2127   1.045       .  S
N2107      H2128   1.046       .  S
C2109      C2116   1.410       .  A
N2110      H2125   1.045       .  S
N2110      H2126   1.046       .  S
C2112      C2113   1.415       .  A
C2112      H2117   1.083       .  S
C2113      N2118   1.437       .  S
C2114      C2115   1.415       .  A
C2115      C2116   1.408       .  A
C2115      H2119   1.083       .  S
C2116      N2120   1.439       .  S
N2118      H2121   1.045       .  S
N2118      H2122   1.046       .  S
N2120      H2123   1.046       .  S
N2120      H2124   1.046   1_455  S
C2129      C2130   1.420       .  A
C2129      C2134   1.408   1_556  A
C2130      C2131   1.403       .  A
C2130      N2135   1.439       .  S
C2131      C2132   1.398   1_556  A
C2131      H2136   1.084       .  S
C2132      C2137   1.471       .  S
C2132      C2133   1.405       .  A
C2133      C2134   1.402       .  A
C2133      N2138   1.438       .  S
C2134      H2139   1.083       .  S
N2135      H2155   1.046       .  S
N2135      H2156   1.046       .  S
C2137      C2140   1.400   1_554  A
C2137      C2144   1.408       .  A
N2138      H2153   1.046       .  S
N2138      H2154   1.046       .  S
C2140      C2141   1.400       .  A
C2140      H2145   1.084       .  S
C2141      C2142   1.408   1_556  A
C2141      N2146   1.432       .  S
C2142      C2143   1.401       .  A
C2143      C2144   1.403       .  A
C2143      H2147   1.084       .  S
C2144      N2148   1.437       .  S
N2146      H2149   1.045       .  S
N2146      H2150   1.046       .  S
N2148      H2151   1.046       .  S
N2148      H2152   1.045       .  S
C2157      C2158   1.419   1_556  A
C2157      C2162   1.409       .  A
C2158      C2159   1.407       .  A
C2158      N2163   1.438       .  S
C2159      C2160   1.401       .  A
C2159      H2164   1.084       .  S
C2160      C2165   1.480       .  S
C2160      C2161   1.406   1_554  A
C2161      C2162   1.404       .  A
C2161      N2166   1.438       .  S
C2162      H2167   1.081       .  S
N2163      H2183   1.046       .  S
N2163      H2184   1.046       .  S
C2165      C2168   1.403   1_554  A
C2165      C2172   1.410       .  A
N2166      H2181   1.046       .  S
N2166      H2182   1.045       .  S
C2168      C2169   1.406       .  A
C2168      H2173   1.084       .  S
C2169      C2170   1.410   1_556  A
C2169      N2174   1.437       .  S
C2170      C2171   1.402       .  A
C2171      C2172   1.404       .  A
C2171      H2175   1.084       .  S
C2172      N2176   1.437       .  S
N2174      H2177   1.046       .  S
N2174      H2178   1.046       .  S
N2176      H2179   1.046       .  S
N2176      H2180   1.045       .  S
C2185      C2186   1.418   1_556  A
C2185      C2190   1.405       .  A
C2186      C2187   1.400       .  A
C2186      N2191   1.439       .  S
C2187      C2188   1.396   1_554  A
C2187      H2192   1.084       .  S
C2188      C2193   1.467       .  S
C2188      C2189   1.406       .  A
C2189      C2190   1.402       .  A
C2189      N2194   1.438       .  S
C2190      H2195   1.084       .  S
N2191      H2211   1.046       .  S
N2191      H2212   1.046       .  S
C2193      C2196   1.400   1_556  A
C2193      C2200   1.407       .  A
N2194      H2209   1.046       .  S
N2194      H2210   1.045       .  S
C2196      C2197   1.400       .  A
C2196      H2201   1.084       .  S
C2197      C2198   1.408       .  A
C2197      N2202   1.437       .  S
C2198      C2199   1.402   1_554  A
C2199      C2200   1.403       .  A
C2199      H2203   1.084       .  S
C2200      N2204   1.438       .  S
N2202      H2205   1.046       .  S
N2202      H2206   1.046       .  S
N2204      H2207   1.046       .  S
N2204      H2208   1.045       .  S
C2213      C2214   1.410       .  A
C2213      C2218   1.406   1_554  A
C2214      C2215   1.398       .  A
C2214      N2219   1.435       .  S
C2215      C2216   1.397       .  A
C2215      H2220   1.084       .  S
C2216      C2221   1.465       .  S
C2216      C2217   1.406   1_554  A
C2217      C2218   1.401       .  A
C2217      N2222   1.438       .  S
C2218      H2223   1.084       .  S
N2219      H2239   1.046       .  S
N2219      H2240   1.045       .  S
C2221      C2224   1.399   1_554  A
C2221      C2228   1.407       .  A
N2222      H2237   1.046       .  S
N2222      H2238   1.046       .  S
C2224      C2225   1.399       .  A
C2224      H2229   1.084       .  S
C2225      C2226   1.409   1_556  A
C2225      N2230   1.438       .  S
C2226      C2227   1.401       .  A
C2227      C2228   1.402       .  A
C2227      H2231   1.084       .  S
C2228      N2232   1.438       .  S
N2230      H2233   1.046       .  S
N2230      H2234   1.045       .  S
N2232      H2235   1.046       .  S
N2232      H2236   1.046       .  S
C2241      C2823   1.498       .  S
C2241      C3138   1.418       .  A
C2241      C2246   1.406       .  A
C2242      C3137   1.415   1_545  A
C2242      C2243   1.408       .  A
C2242      N2247   1.439       .  S
C2243      C3140   1.404   1_545  A
C2243      H2248   1.084       .  S
C2244      C2249   1.501       .  S
C2244      C3139   1.403       .  A
C2244      C2245   1.415       .  A
C2245      C2246   1.416       .  A
C2245      N2250   1.437       .  S
C2246      H2251   1.083       .  S
N2247      H2267   1.046       .  S
N2247      H2268   1.046       .  S
C2249      C2252   1.403       .  A
C2249      C3152   1.415       .  A
N2250      H2265   1.046       .  S
N2250      H2266   1.046       .  S
C2252      C2253   1.411       .  A
C2252      H2257   1.084       .  S
C2253      C2254   1.418       .  A
C2253      N2258   1.438       .  S
C2254      C3151   1.404       .  A
C2255      C3150   1.404   1_565  A
C2255      C2256   1.413       .  A
C2255      H2259   1.083       .  S
C2256      C3145   1.415       .  A
C2256      N2260   1.437       .  S
N2258      H2261   1.046       .  S
N2258      H2262   1.045       .  S
N2260      H2263   1.046       .  S
N2260      H2264   1.046       .  S
C2269      C2270   1.415       .  A
C2269      C3170   1.408       .  A
C2270      C2271   1.417       .  A
C2270      N2275   1.437       .  S
C2271      C3168   1.406       .  A
C2271      H2276   1.083       .  S
C2272      C2277   1.497       .  S
C2272      C3167   1.405       .  A
C2272      C2273   1.411   1_565  A
C2273      C2274   1.412       .  A
C2273      N2278   1.438       .  S
C2274      C3165   1.407       .  A
C2274      H2279   1.084       .  S
N2275      H2295   1.045       .  S
N2275      H2296   1.045       .  S
C2277      C2280   1.399       .  A
C2277      C3180   1.414       .  A
N2278      H2293   1.046       .  S
N2278      H2294   1.045       .  S
C2280      C2281   1.407       .  A
C2280      H2285   1.084       .  S
C2281      C3178   1.418       .  A
C2281      N2286   1.433       .  S
C2282      C2824   1.516       .  S
C2282      C3177   1.427       .  A
C2282      C2283   1.411       .  A
C2283      C2284   1.420       .  A
C2283      H2287   1.083       .  S
C2284      C3173   1.413       .  A
C2284      N2288   1.437       .  S
N2286      H2289   1.046       .  S
N2286      H2290   1.046       .  S
N2288      H2291   1.045       .  S
N2288      H2292   1.046       .  S
C2297      C2298   1.419   1_455  A
C2298      C2299   1.406       .  A
C2298      N2303   1.433       .  S
C2299      H2304   1.084       .  S
C2300      C2301   1.408       .  A
C2301      C2302   1.412       .  A
C2301      N2306   1.438       .  S
C2302      H2307   1.076       .  S
N2303      H2323   1.045       .  S
N2303      H2324   1.046       .  S
C2305      C2308   1.406       .  A
N2306      H2321   1.045       .  S
N2306      H2322   1.046       .  S
C2308      C2309   1.416       .  A
C2308      H2313   1.083       .  S
C2309      C2310   1.418       .  A
C2309      N2314   1.437       .  S
C2311      C2312   1.402       .  A
C2311      H2315   1.083       .  S
C2312      N2316   1.439       .  S
N2314      H2317   1.046       .  S
N2314      H2318   1.046       .  S
N2316      H2319   1.046       .  S
N2316      H2320   1.046       .  S
C2325      C2326   1.421       .  A
C2326      C2327   1.407       .  A
C2326      N2331   1.437       .  S
C2327      H2332   1.084       .  S
C2328      C2333   1.488       .  S
C2328      C2329   1.409       .  A
C2329      C2330   1.413       .  A
C2329      N2334   1.437       .  S
C2330      H2335   1.083       .  S
N2331      H2351   1.045       .  S
N2331      H2352   1.046       .  S
C2333      C2340   1.410       .  A
N2334      H2349   1.045       .  S
N2334      H2350   1.046       .  S
C2336      C2337   1.412       .  A
C2336      H2341   1.084       .  S
C2337      C2338   1.413   1_655  A
C2337      N2342   1.432       .  S
C2339      C2340   1.408       .  A
C2339      H2343   1.084       .  S
C2340      N2344   1.438       .  S
N2342      H2345   1.045       .  S
N2342      H2346   1.045       .  S
N2344      H2347   1.046       .  S
N2344      H2348   1.046       .  S
C2353      C2354   1.412       .  A
C2353      C2358   1.403       .  A
C2354      C2355   1.410       .  A
C2354      N2359   1.438       .  S
C2355      C2356   1.407       .  A
C2355      H2360   1.083       .  S
C2356      C2361   1.504       .  S
C2356      C2357   1.418       .  A
C2357      C2358   1.412       .  A
C2357      N2362   1.438       .  S
C2358      H2363   1.084       .  S
N2359      H2379   1.046       .  S
N2359      H2380   1.046       .  S
C2361      C2364   1.407       .  A
C2361      C2368   1.420       .  A
N2362      H2377   1.046       .  S
N2362      H2378   1.045       .  S
C2364      C2365   1.406       .  A
C2364      H2369   1.083       .  S
C2365      C2366   1.408       .  A
C2365      N2370   1.432       .  S
C2366      C2367   1.401       .  A
C2367      C2368   1.413       .  A
C2367      H2371   1.084       .  S
C2368      N2372   1.438       .  S
N2370      H2373   1.045       .  S
N2370      H2374   1.046       .  S
N2372      H2375   1.046       .  S
N2372      H2376   1.046       .  S
C2381      C2382   1.415       .  A
C2381      C2386   1.410       .  A
C2382      C2383   1.412       .  A
C2382      N2387   1.437       .  S
C2383      C2384   1.406       .  A
C2383      H2388   1.084       .  S
C2384      C2389   1.498       .  S
C2384      C2385   1.411       .  A
C2385      C2386   1.411       .  A
C2385      N2390   1.438       .  S
C2386      H2391   1.084       .  S
N2387      H2407   1.045       .  S
N2387      H2408   1.046       .  S
C2389      C2392   1.405       .  A
C2389      C2396   1.410       .  A
N2390      H2405   1.046       .  S
N2390      H2406   1.046       .  S
C2392      C2393   1.414       .  A
C2392      H2397   1.083       .  S
C2393      C2394   1.417       .  A
C2393      N2398   1.437       .  S
C2394      C2395   1.409       .  A
C2395      C2396   1.409       .  A
C2395      H2399   1.083       .  S
C2396      N2400   1.438       .  S
N2398      H2401   1.045       .  S
N2398      H2402   1.045       .  S
N2400      H2403   1.046       .  S
N2400      H2404   1.045       .  S
C2409      C2410   1.421       .  A
C2409      C2414   1.416       .  A
C2410      C2411   1.409       .  A
C2410      N2415   1.433       .  S
C2411      C2412   1.401       .  A
C2411      H2416   1.084       .  S
C2412      C2417   1.493       .  S
C2412      C2413   1.407       .  A
C2413      C2414   1.411       .  A
C2413      N2418   1.438       .  S
C2414      H2419   1.074       .  S
N2415      H2435   1.046       .  S
N2415      H2436   1.046       .  S
C2417      C2420   1.404       .  A
C2417      C2424   1.413       .  A
N2418      H2433   1.045       .  S
N2418      H2434   1.045       .  S
C2420      C2421   1.408       .  A
C2420      H2425   1.084       .  S
C2421      C2422   1.414       .  A
C2421      N2426   1.439       .  S
C2422      C2423   1.404       .  A
C2423      C2424   1.412       .  A
C2423      H2427   1.084       .  S
C2424      N2428   1.437       .  S
N2426      H2429   1.046       .  S
N2426      H2430   1.046       .  S
N2428      H2431   1.046       .  S
N2428      H2432   1.046       .  S
C2437      C2438   1.409       .  A
C2437      C2442   1.405       .  A
C2438      C2439   1.407       .  A
C2438      N2443   1.431       .  S
C2439      C2440   1.403       .  A
C2439      H2444   1.084       .  S
C2440      C2445   1.489       .  S
C2440      C2441   1.411       .  A
C2441      C2442   1.411       .  A
C2441      N2446   1.438       .  S
C2442      H2447   1.084       .  S
N2443      H2463   1.045       .  S
N2443      H2464   1.046       .  S
C2445      C2448   1.404       .  A
C2445      C2452   1.408       .  A
N2446      H2461   1.045       .  S
N2446      H2462   1.046       .  S
C2448      C2449   1.414       .  A
C2448      H2453   1.084       .  S
C2449      C2450   1.415       .  A
C2449      N2454   1.437       .  S
C2450      C2451   1.409       .  A
C2451      C2452   1.407       .  A
C2451      H2455   1.084       .  S
C2452      N2456   1.438       .  S
N2454      H2457   1.046       .  S
N2454      H2458   1.046       .  S
N2456      H2459   1.046       .  S
N2456      H2460   1.045       .  S
C2465      C2466   1.413       .  A
C2465      C2470   1.404       .  A
C2466      C2467   1.404       .  A
C2466      N2471   1.438       .  S
C2467      C2468   1.400       .  A
C2467      H2472   1.084       .  S
C2468      C2473   1.475       .  S
C2468      C2469   1.407       .  A
C2469      C2470   1.403       .  A
C2469      N2474   1.437       .  S
C2470      H2475   1.083       .  S
N2471      H2491   1.045       .  S
N2471      H2492   1.046       .  S
C2473      C2476   1.403       .  A
C2473      C2480   1.408       .  A
N2474      H2489   1.045       .  S
N2474      H2490   1.046       .  S
C2476      C2477   1.404       .  A
C2476      H2481   1.084       .  S
C2477      C2478   1.408       .  A
C2477      N2482   1.437       .  S
C2478      C2479   1.402       .  A
C2479      C2480   1.402       .  A
C2479      H2483   1.084       .  S
C2480      N2484   1.437       .  S
N2482      H2485   1.046       .  S
N2482      H2486   1.045       .  S
N2484      H2487   1.046       .  S
N2484      H2488   1.046       .  S
C2493      C2494   1.407       .  A
C2493      C2498   1.399       .  A
C2494      C2495   1.400       .  A
C2494      N2499   1.438       .  S
C2495      C2496   1.402       .  A
C2495      H2500   1.084       .  S
C2496      C2501   1.476       .  S
C2496      C2497   1.412       .  A
C2497      C2498   1.402       .  A
C2497      N2502   1.438       .  S
C2498      H2503   1.084       .  S
N2499      H2519   1.045       .  S
N2499      H2520   1.045       .  S
C2501      C2504   1.400       .  A
C2501      C2508   1.407       .  A
N2502      H2517   1.046       .  S
N2502      H2518   1.046       .  S
C2504      C2505   1.401       .  A
C2504      H2509   1.084       .  S
C2505      C2506   1.417       .  A
C2505      N2510   1.439       .  S
C2506      C2507   1.407       .  A
C2507      C2508   1.401       .  A
C2507      H2511   1.083       .  S
C2508      N2512   1.438       .  S
N2510      H2513   1.046       .  S
N2510      H2514   1.046       .  S
N2512      H2515   1.046       .  S
N2512      H2516   1.045       .  S
C2521      C2522   1.414       .  A
C2521      C2526   1.401       .  A
C2522      C2523   1.396       .  A
C2522      N2527   1.438       .  S
C2523      C2524   1.401       .  A
C2523      H2528   1.084       .  S
C2524      C2529   1.470       .  S
C2524      C2525   1.408       .  A
C2525      C2526   1.400       .  A
C2525      N2530   1.438       .  S
C2526      H2531   1.084       .  S
N2527      H2547   1.043       .  S
N2527      H2548   1.045       .  S
C2529      C2532   1.399       .  A
C2529      C2536   1.408       .  A
N2530      H2545   1.046       .  S
N2530      H2546   1.046       .  S
C2532      C2533   1.398       .  A
C2532      H2537   1.084       .  S
C2533      C2534   1.413       .  A
C2533      N2538   1.434       .  S
C2534      C2535   1.403       .  A
C2535      C2536   1.401       .  A
C2535      H2539   1.083       .  S
C2536      N2540   1.438       .  S
N2538      H2541   1.046       .  S
N2538      H2542   1.046       .  S
N2540      H2543   1.046       .  S
N2540      H2544   1.046       .  S
C2549      C2550   1.419       .  A
C2549      C2554   1.408       .  A
C2550      C2551   1.398       .  A
C2550      N2555   1.433       .  S
C2551      C2552   1.397       .  A
C2551      H2556   1.084       .  S
C2552      C2557   1.472       .  S
C2552      C2553   1.406       .  A
C2553      C2554   1.402       .  A
C2553      N2558   1.438       .  S
C2554      H2559   1.083       .  S
N2555      H2575   1.046       .  S
N2555      H2576   1.046       .  S
C2557      C2560   1.401       .  A
C2557      C2564   1.408       .  A
N2558      H2573   1.046       .  S
N2558      H2574   1.046       .  S
C2560      C2561   1.396       .  A
C2560      H2565   1.084       .  S
C2561      C2562   1.415       .  A
C2561      N2566   1.439       .  S
C2562      C2563   1.401       .  A
C2563      C2564   1.400       .  A
C2563      H2567   1.084       .  S
C2564      N2568   1.438       .  S
N2566      H2569   1.046       .  S
N2566      H2570   1.043       .  S
N2568      H2571   1.046       .  S
N2568      H2572   1.046       .  S
C2577      C2578   1.416       .  A
C2577      C2582   1.401       .  A
C2578      C2579   1.411       .  A
C2578      N2583   1.439       .  S
C2579      C2580   1.406       .  A
C2579      H2584   1.083       .  S
C2580      C2585   1.501       .  S
C2580      C2581   1.415       .  A
C2581      C2582   1.411       .  A
C2581      N2586   1.438       .  S
C2582      H2587   1.079       .  S
N2583      H2603   1.044       .  S
N2583      H2604   1.046       .  S
C2585      C2588   1.407       .  A
C2585      C2592   1.416       .  A
N2586      H2601   1.046       .  S
N2586      H2602   1.046       .  S
C2588      C2589   1.410       .  A
C2588      H2593   1.083       .  S
C2589      C2590   1.411       .  A
C2589      N2594   1.438       .  S
C2590      C2591   1.402       .  A
C2591      C2592   1.410       .  A
C2591      H2595   1.084       .  S
C2592      N2596   1.438       .  S
N2594      H2597   1.046       .  S
N2594      H2598   1.046       .  S
N2596      H2599   1.046       .  S
N2596      H2600   1.046       .  S
C2605      C2606   1.411       .  A
C2605      C2610   1.413       .  A
C2606      C2607   1.410       .  A
C2606      N2611   1.428       .  S
C2607      C2608   1.408       .  A
C2607      H2612   1.083       .  S
C2608      C2613   1.503       .  S
C2608      C2609   1.412       .  A
C2609      C2610   1.409       .  A
C2609      N2614   1.438       .  S
C2610      H2615   1.082       .  S
N2611      H2631   1.046       .  S
N2611      H2632   1.045       .  S
C2613      C2616   1.408       .  A
C2613      C2620   1.412       .  A
N2614      H2629   1.045       .  S
N2614      H2630   1.046       .  S
C2616      C2617   1.414       .  A
C2616      H2621   1.083       .  S
C2617      C2618   1.417       .  A
C2617      N2622   1.436       .  S
C2618      C2619   1.409       .  A
C2619      C2620   1.406       .  A
C2619      H2623   1.083       .  S
C2620      N2624   1.438       .  S
N2622      H2625   1.046       .  S
N2622      H2626   1.043       .  S
N2624      H2627   1.045       .  S
N2624      H2628   1.046       .  S
C2633      C2634   1.414       .  A
C2633      C2638   1.406       .  A
C2634      C2635   1.414       .  A
C2634      N2639   1.436       .  S
C2635      C2636   1.405       .  A
C2635      H2640   1.084       .  S
C2636      C2641   1.490       .  S
C2636      C2637   1.408       .  A
C2637      C2638   1.407       .  A
C2637      N2642   1.438       .  S
C2638      H2643   1.084       .  S
N2639      H2659   1.046       .  S
N2639      H2660   1.046       .  S
C2641      C2644   1.403       .  A
C2641      C2648   1.411       .  A
N2642      H2657   1.046       .  S
N2642      H2658   1.045       .  S
C2644      C2645   1.409       .  A
C2644      H2649   1.084       .  S
C2645      C2646   1.412       .  A
C2645      N2650   1.432       .  S
C2646      C2647   1.405       .  A
C2647      C2648   1.410       .  A
C2647      H2651   1.083       .  S
C2648      N2652   1.438       .  S
N2650      H2653   1.046       .  S
N2650      H2654   1.045       .  S
N2652      H2655   1.045       .  S
N2652      H2656   1.045       .  S
C2661      C2662   1.412       .  A
C2661      C2666   1.407       .  A
C2662      C2663   1.408       .  A
C2662      N2667   1.433       .  S
C2663      C2664   1.404       .  A
C2663      H2668   1.084       .  S
C2664      C2669   1.498       .  S
C2664      C2665   1.414       .  A
C2665      C2666   1.415       .  A
C2665      N2670   1.437       .  S
C2666      H2671   1.084       .  S
N2667      H2687   1.046       .  S
N2667      H2688   1.046       .  S
C2669      C2672   1.402       .  A
C2669      C2676   1.409       .  A
N2670      H2685   1.046       .  S
N2670      H2686   1.045       .  S
C2672      C2673   1.411       .  A
C2672      H2677   1.084       .  S
C2673      C2674   1.420       .  A
C2673      N2678   1.432       .  S
C2674      C2675   1.416       .  A
C2675      C2676   1.412       .  A
C2675      H2679   1.074       .  S
C2676      N2680   1.438       .  S
N2678      H2681   1.046       .  S
N2678      H2682   1.046       .  S
N2680      H2683   1.046       .  S
N2680      H2684   1.046       .  S
O2689     Zr2725   2.460       .  S
O2689      C2700   1.296       .  A
O2690     Zr2724   2.466       .  S
O2690      C2701   1.297       .  A
O2691     Zr2697   2.422       .  S
O2691      C2702   1.289       .  A
O2692     Zr2697   2.421       .  S
O2692      C2703   1.288       .  A
O2693     Zr2727   2.440       .  S
O2693      C2703   1.293       .  A
O2694     Zr2726   2.439       .  S
O2694      C2702   1.292       .  A
O2695     Zr2697   2.432       .  S
O2695      C2701   1.291       .  A
O2696     Zr2697   2.445       .  S
O2696      C2700   1.294       .  A
Zr2697     O2698   2.340       .  S
Zr2697     O2699   2.333       .  S
Zr2697     O2707   2.334       .  S
Zr2697     O2705   2.340       .  S
O2698     Zr2724   2.351       .  S
O2698     Zr2727   2.336       .  S
O2699     Zr2725   2.350       .  S
O2699     Zr2726   2.339       .  S
C2700      C3557   1.492       .  S
C2701      C3318   1.481       .  S
C2702      C3361   1.481       .  S
C2703      C3402   1.483       .  S
H2704      O2705   0.966       .  S
O2705     Zr2724   2.346       .  S
O2705     Zr2726   2.338       .  S
H2706      O2707   0.965       .  S
O2707     Zr2725   2.354       .  S
O2707     Zr2727   2.347       .  S
O2708     Zr2724   2.474       .  S
O2708      C2731   1.299       .  A
O2709     Zr2725   2.480       .  S
O2709      C2732   1.300       .  A
O2710     Zr2726   2.435       .  S
O2710      C2733   1.292       .  A
O2711     Zr2727   2.457       .  S
O2711      C2734   1.296       .  A
O2712     Zr2727   2.445       .  S
O2712      C2735   1.294       .  A
O2713     Zr2726   2.426       .  S
O2713      C2736   1.291       .  A
O2714     Zr2728   2.427       .  S
O2714      C2737   1.289       .  A
O2715     Zr2728   2.414       .  S
O2715      C2738   1.287       .  A
O2716     Zr2726   2.436       .  S
O2716      C2737   1.293       .  A
O2717     Zr2727   2.440       .  S
O2717      C2738   1.293       .  A
O2718     Zr2724   2.461       .  S
O2718      C2733   1.297       .  A
O2719     Zr2725   2.478       .  S
O2719      C2736   1.300       .  A
O2720     Zr2725   2.464       .  S
O2720      C2735   1.297       .  A
O2721     Zr2724   2.460       .  S
O2721      C2734   1.296       .  A
O2722     Zr2728   2.438       .  S
O2722      C2731   1.293       .  A
O2723     Zr2728   2.437       .  S
O2723      C2732   1.292       .  A
Zr2724     O2730   2.351       .  S
Zr2724     O2742   2.348       .  S
Zr2725     O2729   2.352       .  S
Zr2725     O2740   2.352       .  S
Zr2726     O2730   2.337       .  S
Zr2726     O2740   2.347       .  S
Zr2727     O2729   2.344       .  S
Zr2727     O2742   2.342       .  S
Zr2728     O2729   2.336       .  S
Zr2728     O2730   2.338       .  S
Zr2728     O2742   2.344       .  S
Zr2728     O2740   2.342       .  S
C2731      C3346   1.496       .  S
C2732      C3529   1.500       .  S
C2733      C3249   1.484       .  S
C2734      C3277   1.499       .  S
C2735      C3486   1.484       .  S
C2736      C3514   1.497       .  S
C2737      C3445   1.490       .  S
C2738      C3430   1.478       .  S
H2739      O2740   0.965       .  S
H2741      O2742   0.966       .  S
N2743      H2775   1.039       .  S
N2743      C2747   1.350       .  A
N2744      C2752   1.348       .  A
N2745      H2776   1.037       .  S
N2745      C2749   1.351       .  A
N2746      C2754   1.348       .  A
C2747      C2755   1.386       .  A
C2747      C2763   1.408       .  A
C2748      C2764   1.414       .  A
C2748      C2756   1.389   1_565  A
C2749      C2757   1.387       .  A
C2749      C2766   1.411       .  A
C2750      C2765   1.411       .  A
C2750      C2758   1.386   1_565  A
C2751      C2763   1.407       .  A
C2751      C2759   1.386       .  A
C2752      C2766   1.407       .  A
C2752      C2760   1.386       .  A
C2753      C2761   1.387       .  A
C2753      C2764   1.413       .  A
C2754      C2762   1.386       .  A
C2754      C2765   1.407       .  A
C2755      H2767   1.082       .  S
C2756      H2768   1.082   1_545  S
C2757      H2769   1.082       .  S
C2758      H2770   1.082   1_545  S
C2759      H2771   1.082       .  S
C2760      H2772   1.082       .  S
C2761      H2773   1.082       .  S
C2762      H2774   1.082       .  S
C2763      C3374   1.475       .  S
C2764      C3458   1.483       .  S
C2765      C3417   1.479       .  S
C2766      C3389   1.475       .  S
O2777     Zr2813   2.473       .  S
O2777      C2788   1.299       .  A
O2778     Zr2812   2.472       .  S
O2778      C2789   1.299       .  A
O2779      C2790   1.286       .  A
O2780     Zr2785   2.424       .  S
O2780      C2791   1.289       .  A
O2781     Zr2815   2.424       .  S
O2781      C2791   1.289       .  A
O2782     Zr2814   2.442       .  S
O2782      C2790   1.293       .  A
O2783     Zr2785   2.442   1_554  S
O2783      C2789   1.293       .  A
O2784     Zr2785   2.446       .  S
O2784      C2788   1.294       .  A
Zr2785     O2786   2.335   1_556  S
Zr2785     O2795   2.339       .  S
O2786     Zr2812   2.362       .  S
O2786     Zr2815   2.334   1_554  S
O2787     Zr2814   2.334       .  S
C2788      C3221   1.495       .  S
C2789      C2982   1.492       .  S
C2790      C3025   1.477       .  S
C2791      C3053   1.477   1_556  S
H2792      O2793   0.967       .  S
O2793     Zr2814   2.340   1_554  S
H2794      O2795   0.967       .  S
O2795     Zr2813   2.361       .  S
O2795     Zr2815   2.332       .  S
O2796      C2819   1.297       .  A
O2797      C2820   1.298       .  A
O2798     Zr2814   2.433   1_554  S
O2798      C2821   1.293       .  A
O2799     Zr2815   2.424   1_554  S
O2799      C2822   1.291       .  A
O2800     Zr2815   2.437       .  S
O2801     Zr2814   2.435       .  S
O2802      C2825   1.287       .  A
O2803     Zr2816   2.429       .  S
O2803      C2826   1.291       .  A
O2804      C2825   1.293       .  A
O2805      C2826   1.289       .  A
O2806      C2821   1.302       .  A
O2807      C2824   1.306       .  A
O2808      C2823   1.302       .  A
O2809     Zr2812   2.481       .  S
O2809      C2822   1.300       .  A
O2810     Zr2816   2.445   1_554  S
O2810      C2819   1.295       .  A
O2811     Zr2816   2.437       .  S
O2811      C2820   1.293       .  A
Zr2816     O2817   2.334       .  S
Zr2816     O2830   2.336   1_556  S
C2819      C3010   1.506   1_655  S
C2820      C3206   1.505       .  S
C2821      C2913   1.513       .  S
C2822      C2941   1.506       .  S
C2825      C3109   1.473       .  S
C2826      C3081   1.484       .  S
H2827      O2828   0.966       .  S
H2829      O2830   0.967       .  S
N2831      H2863   1.040       .  S
N2831      C2836   1.349       .  A
N2831      C2835   1.352       .  A
N2832      C2839   1.349       .  A
N2832      C2840   1.348       .  A
N2833      H2864   1.040       .  S
N2833      C2838   1.353       .  A
N2833      C2837   1.350       .  A
N2834      C2841   1.346       .  A
N2834      C2842   1.348       .  A
C2835      C2843   1.388   1_554  A
C2835      C2851   1.412       .  A
C2836      C2852   1.407       .  A
C2836      C2844   1.386   1_554  A
C2837      C2845   1.388   1_554  A
C2837      C2854   1.411       .  A
C2838      C2853   1.412       .  A
C2838      C2846   1.386   1_554  A
C2839      C2851   1.410       .  A
C2839      C2847   1.386       .  A
C2840      C2854   1.408       .  A
C2840      C2848   1.387       .  A
C2841      C2849   1.386       .  A
C2841      C2852   1.404       .  A
C2842      C2850   1.387       .  A
C2842      C2853   1.407       .  A
C2843      C2844   1.374       .  A
C2843      H2855   1.082       .  S
C2844      H2856   1.082       .  S
C2845      C2846   1.374       .  A
C2845      H2857   1.082       .  S
C2846      H2858   1.082       .  S
C2847      C2848   1.374       .  A
C2847      H2859   1.082       .  S
C2848      H2860   1.082       .  S
C2849      C2850   1.370       .  A
C2849      H2861   1.082       .  S
C2850      H2862   1.082       .  S
C2851      C3094   1.484       .  S
C2852      C3066   1.469       .  S
C2853      C3038   1.485       .  S
C2854      C3122   1.475       .  S
C2865      C2871   1.543   1_455  S
C2865      C2869   1.542   1_455  S
C2865      C2997   1.550       .  S
C2866      H2873   1.086       .  S
C2866      C2867   1.364       .  D
C2867      C3473   1.498       .  S
C2868      C2872   1.551   1_455  S
C2868      C2870   1.551   1_455  S
C2868      H2874   1.107       .  S
C2869      H2875   1.079       .  S
C2869      C2870   1.369       .  D
C2870      C3501   1.506       .  S
C2871      H2876   1.086       .  S
C2871      C2872   1.374       .  D
C2872      C2969   1.507       .  S
C2877      C2878   1.547       .  S
C2877      C2881   1.542       .  S
C2877      C3570   1.556       .  S
C2878      H2885   1.080       .  S
C2879      C2880   1.545   1_545  S
C2879      C2954   1.495       .  S
C2880      C2884   1.541       .  S
C2880      C2882   1.552   1_565  S
C2880      H2886   1.108       .  S
C2881      H2887   1.085       .  S
C2882      C2926   1.510       .  S
C2883      H2888   1.086       .  S
C2883      C2884   1.366   1_545  D
C2884      C3542   1.493       .  S
C2889      C2890   1.535   1_455  S
C2889      C2895   1.542       .  S
C2889      C3193   1.550   1_455  S
C2890      H2897   1.087       .  S
C2890      C2891   1.362       .  D
C2891      C2892   1.544       .  S
C2891      C3262   1.487       .  S
C2892      C2896   1.552   1_655  S
C2892      H2898   1.105       .  S
C2893      H2899   1.079       .  S
C2893      C2894   1.372       .  D
C2894      C3290   1.514       .  S
C2895      H2900   1.085       .  S
C2895      C2896   1.374       .  D
C2896      C3234   1.509       .  S
C2901      C2902   1.546       .  S
C2901      C2905   1.540       .  S
C2901      C3305   1.552       .  S
C2902      H2909   1.080       .  S
C2903      C2904   1.550   1_545  S
C2903      C3165   1.500       .  S
C2904      C2908   1.542       .  S
C2904      C2906   1.548   1_565  S
C2904      H2910   1.110       .  S
C2905      H2911   1.086       .  S
C2906      C3150   1.499       .  S
C2907      H2912   1.086       .  S
C2907      C2908   1.368   1_545  D
C2908      C3333   1.492       .  S
C2913      C2914   1.419       .  A
C2914      C2915   1.417       .  A
C2914      N2919   1.437       .  S
C2915      C2916   1.410       .  A
C2915      H2920   1.083       .  S
C2916      C2921   1.511       .  S
C2917      C2918   1.407       .  A
C2917      N2922   1.439       .  S
C2918      H2923   1.082       .  S
N2919      H2939   1.045       .  S
N2919      H2940   1.046       .  S
C2921      C2928   1.415   1_565  A
N2922      H2937   1.046       .  S
N2922      H2938   1.046       .  S
C2924      C2925   1.410       .  A
C2924      H2929   1.084       .  S
C2925      N2930   1.431       .  S
C2926      C2927   1.410       .  A
C2927      C2928   1.412       .  A
C2927      H2931   1.082       .  S
C2928      N2932   1.438       .  S
N2930      H2933   1.045       .  S
N2930      H2934   1.046       .  S
N2932      H2935   1.046       .  S
N2932      H2936   1.046       .  S
C2941      C2942   1.419       .  A
C2941      C2946   1.414       .  A
C2942      C2943   1.417       .  A
C2943      C2944   1.407       .  A
C2944      C2949   1.495       .  S
C2944      C2945   1.406       .  A
C2945      C2946   1.404       .  A
C2945      N2950   1.438       .  S
C2946      H2951   1.083       .  S
N2947      H2967   1.046       .  S
N2947      H2968   1.046       .  S
C2949      C2956   1.412       .  A
N2950      H2965   1.046       .  S
N2950      H2966   1.046       .  S
C2952      C2953   1.410       .  A
C2952      H2957   1.084       .  S
C2953      N2958   1.438       .  S
C2954      C2955   1.405   1_545  A
C2955      C2956   1.414       .  A
C2955      H2959   1.084       .  S
C2956      N2960   1.437       .  S
N2958      H2961   1.046       .  S
N2958      H2962   1.046       .  S
N2960      H2963   1.046       .  S
N2960      H2964   1.046       .  S
C2969      C2974   1.410       .  A
C2970      C2971   1.413       .  A
C2970      N2975   1.436       .  S
C2971      H2976   1.084       .  S
C2972      C2977   1.491       .  S
C2972      C2973   1.408       .  A
C2973      C2974   1.410       .  A
C2973      N2978   1.438       .  S
C2974      H2979   1.083       .  S
N2975      H2995   1.044       .  S
N2975      H2996   1.045       .  S
C2977      C2984   1.411       .  A
N2978      H2993   1.046       .  S
N2978      H2994   1.045       .  S
C2980      C2981   1.407       .  A
C2980      H2985   1.084       .  S
C2981      N2986   1.439       .  S
C2982      C2983   1.407       .  A
C2983      C2984   1.415       .  A
C2983      H2987   1.083       .  S
C2984      N2988   1.437       .  S
N2986      H2989   1.046       .  S
N2986      H2990   1.046       .  S
N2988      H2991   1.045       .  S
N2988      H2992   1.046       .  S
C2997      C3002   1.417   1_455  A
C2998      C2999   1.407       .  A
C2998      N3003   1.433       .  S
C2999      H3004   1.084       .  S
C3000      C3005   1.494       .  S
C3000      C3001   1.407   1_455  A
C3001      C3002   1.411       .  A
C3001      N3006   1.438       .  S
C3002      H3007   1.074       .  S
N3003      H3023   1.046       .  S
N3003      H3024   1.045       .  S
C3005      C3012   1.406   1_455  A
N3006      H3021   1.045       .  S
N3006      H3022   1.046       .  S
C3008      C3009   1.414       .  A
C3008      H3013   1.084       .  S
C3009      N3014   1.438       .  S
C3010      C3011   1.411   1_455  A
C3011      C3012   1.405       .  A
C3011      H3015   1.083       .  S
C3012      N3016   1.438       .  S
N3014      H3017   1.046       .  S
N3014      H3018   1.046       .  S
N3016      H3019   1.045       .  S
N3016      H3020   1.046       .  S
C3025      C3026   1.418       .  A
C3025      C3030   1.404   1_556  A
C3026      C3027   1.401       .  A
C3026      N3031   1.439       .  S
C3027      C3028   1.397       .  A
C3027      H3032   1.084       .  S
C3028      C3033   1.468   1_556  S
C3028      C3029   1.406   1_556  A
C3029      C3030   1.401       .  A
C3029      N3034   1.438       .  S
C3030      H3035   1.084       .  S
N3031      H3051   1.046       .  S
N3031      H3052   1.046       .  S
C3033      C3036   1.399   1_554  A
C3033      C3040   1.408       .  A
N3034      H3049   1.046       .  S
N3034      H3050   1.046       .  S
C3036      C3037   1.398       .  A
C3036      H3041   1.084       .  S
C3037      C3038   1.411   1_556  A
C3037      N3042   1.433       .  S
C3038      C3039   1.403       .  A
C3039      C3040   1.402       .  A
C3039      H3043   1.084       .  S
C3040      N3044   1.438       .  S
N3042      H3045   1.046       .  S
N3042      H3046   1.045       .  S
N3044      H3047   1.046       .  S
N3044      H3048   1.045       .  S
C3053      C3054   1.416       .  A
C3053      C3058   1.406   1_554  A
C3054      C3055   1.401       .  A
C3054      N3059   1.438       .  S
C3055      C3056   1.398       .  A
C3055      H3060   1.084       .  S
C3056      C3061   1.464       .  S
C3056      C3057   1.403   1_554  A
C3057      C3058   1.399       .  A
C3057      N3062   1.438       .  S
C3058      H3063   1.081       .  S
N3059      H3079   1.046       .  S
N3059      H3080   1.046       .  S
C3061      C3064   1.400   1_554  A
C3061      C3068   1.407       .  A
N3062      H3077   1.046       .  S
N3062      H3078   1.046       .  S
C3064      C3065   1.401       .  A
C3064      H3069   1.084       .  S
C3065      C3066   1.408   1_556  A
C3065      N3070   1.438       .  S
C3066      C3067   1.398       .  A
C3067      C3068   1.398       .  A
C3067      H3071   1.084       .  S
C3068      N3072   1.438       .  S
N3070      H3073   1.046       .  S
N3070      H3074   1.045       .  S
N3072      H3075   1.046       .  S
N3072      H3076   1.046       .  S
C3081      C3082   1.418   1_556  A
C3081      C3086   1.408       .  A
C3082      C3083   1.403       .  A
C3082      N3087   1.439       .  S
C3083      C3084   1.398       .  A
C3083      H3088   1.084       .  S
C3084      C3089   1.474       .  S
C3084      C3085   1.405   1_554  A
C3085      C3086   1.403       .  A
C3085      N3090   1.438       .  S
C3086      H3091   1.083       .  S
N3087      H3107   1.046       .  S
N3087      H3108   1.046       .  S
C3089      C3092   1.402       .  A
C3089      C3096   1.407   1_554  A
N3090      H3105   1.046       .  S
N3090      H3106   1.046       .  S
C3092      C3093   1.404       .  A
C3092      H3097   1.084       .  S
C3093      C3094   1.410       .  A
C3093      N3098   1.437       .  S
C3094      C3095   1.403   1_554  A
C3095      C3096   1.401       .  A
C3095      H3099   1.084       .  S
C3096      N3100   1.437       .  S
N3098      H3101   1.046       .  S
N3098      H3102   1.045       .  S
N3100      H3103   1.046       .  S
N3100      H3104   1.046       .  S
C3109      C3110   1.411       .  A
C3109      C3114   1.405   1_554  A
C3110      C3111   1.401       .  A
C3110      N3115   1.436       .  S
C3111      C3112   1.400       .  A
C3111      H3116   1.084       .  S
C3112      C3117   1.473       .  S
C3112      C3113   1.408   1_554  A
C3113      C3114   1.402       .  A
C3113      N3118   1.438       .  S
C3114      H3119   1.084       .  S
N3115      H3135   1.046       .  S
N3115      H3136   1.046       .  S
C3117      C3120   1.402   1_554  A
C3117      C3124   1.410       .  A
N3118      H3133   1.046       .  S
N3118      H3134   1.046       .  S
C3120      C3121   1.400       .  A
C3120      H3125   1.084       .  S
C3121      C3122   1.408   1_556  A
C3121      N3126   1.438       .  S
C3122      C3123   1.399       .  A
C3123      C3124   1.402       .  A
C3123      H3127   1.084       .  S
C3124      N3128   1.438       .  S
N3126      H3129   1.046       .  S
N3126      H3130   1.045       .  S
N3128      H3131   1.046       .  S
N3128      H3132   1.046       .  S
C3137      C3142   1.405       .  A
C3138      C3139   1.411       .  A
C3138      N3143   1.439       .  S
C3139      H3144   1.084       .  S
C3140      C3145   1.497       .  S
C3140      C3141   1.415       .  A
C3141      C3142   1.413       .  A
C3141      N3146   1.437       .  S
C3142      H3147   1.084       .  S
N3143      H3163   1.046       .  S
N3143      H3164   1.046       .  S
C3145      C3148   1.402   1_565  A
N3146      H3161   1.046       .  S
N3146      H3162   1.045       .  S
C3148      C3149   1.410       .  A
C3148      H3153   1.084       .  S
C3149      C3150   1.417       .  A
C3149      N3154   1.438       .  S
C3151      C3152   1.415       .  A
C3151      H3155   1.083       .  S
C3152      N3156   1.437       .  S
N3154      H3157   1.046       .  S
N3154      H3158   1.045       .  S
N3156      H3159   1.046       .  S
N3156      H3160   1.046       .  S
C3165      C3166   1.414   1_545  A
C3166      C3167   1.416       .  A
C3166      N3171   1.436       .  S
C3167      H3172   1.083       .  S
C3168      C3173   1.500       .  S
C3168      C3169   1.411       .  A
C3169      C3170   1.410       .  A
C3169      N3174   1.438       .  S
C3170      H3175   1.084       .  S
N3171      H3191   1.045       .  S
N3171      H3192   1.045       .  S
C3173      C3176   1.398       .  A
N3174      H3189   1.046       .  S
N3174      H3190   1.046       .  S
C3176      C3177   1.406       .  A
C3176      H3181   1.084       .  S
C3177      N3182   1.433       .  S
C3178      C3179   1.409       .  A
C3179      C3180   1.418       .  A
C3179      H3183   1.083   1_565  S
C3180      N3184   1.437   1_565  S
N3182      H3185   1.046       .  S
N3182      H3186   1.046       .  S
N3184      H3187   1.046       .  S
N3184      H3188   1.045       .  S
C3193      C3194   1.420       .  A
C3194      C3195   1.407       .  A
C3194      N3199   1.433       .  S
C3195      H3200   1.084       .  S
C3196      C3197   1.408       .  A
C3197      C3198   1.413       .  A
C3197      N3202   1.438       .  S
C3198      H3203   1.074       .  S
N3199      H3219   1.046       .  S
N3199      H3220   1.045       .  S
C3201      C3204   1.405       .  A
N3202      H3217   1.045       .  S
N3202      H3218   1.046       .  S
C3204      C3205   1.415       .  A
C3204      H3209   1.084       .  S
C3205      C3206   1.420       .  A
C3205      N3210   1.437       .  S
C3207      C3208   1.406       .  A
C3207      H3211   1.083       .  S
C3208      N3212   1.438       .  S
N3210      H3213   1.046       .  S
N3210      H3214   1.046       .  S
N3212      H3215   1.046       .  S
N3212      H3216   1.046       .  S
C3221      C3222   1.416       .  A
C3222      C3223   1.409       .  A
C3222      N3227   1.437       .  S
C3223      H3228   1.084       .  S
C3224      C3229   1.492       .  S
C3224      C3225   1.412       .  A
C3225      C3226   1.417       .  A
C3225      N3230   1.437       .  S
C3226      H3231   1.083       .  S
N3227      H3247   1.046       .  S
N3227      H3248   1.046       .  S
C3229      C3236   1.411       .  A
N3230      H3245   1.046       .  S
N3230      H3246   1.046       .  S
C3232      C3233   1.411       .  A
C3232      H3237   1.084       .  S
C3233      C3234   1.416   1_655  A
C3233      N3238   1.431       .  S
C3235      C3236   1.409       .  A
C3235      H3239   1.083       .  S
C3236      N3240   1.437       .  S
N3238      H3241   1.045       .  S
N3238      H3242   1.046       .  S
N3240      H3243   1.046       .  S
N3240      H3244   1.046       .  S
C3249      C3250   1.413       .  A
C3249      C3254   1.404       .  A
C3250      C3251   1.408       .  A
C3250      N3255   1.438       .  S
C3251      C3252   1.404       .  A
C3251      H3256   1.084       .  S
C3252      C3257   1.494       .  S
C3252      C3253   1.414       .  A
C3253      C3254   1.410       .  A
C3253      N3258   1.438       .  S
C3254      H3259   1.084       .  S
N3255      H3275   1.046       .  S
N3255      H3276   1.046       .  S
C3257      C3260   1.404       .  A
C3257      C3264   1.414       .  A
N3258      H3273   1.046       .  S
N3258      H3274   1.046       .  S
C3260      C3261   1.409       .  A
C3260      H3265   1.084       .  S
C3261      C3262   1.414       .  A
C3261      N3266   1.438       .  S
C3262      C3263   1.401       .  A
C3263      C3264   1.410       .  A
C3263      H3267   1.084       .  S
C3264      N3268   1.437       .  S
N3266      H3269   1.046       .  S
N3266      H3270   1.045       .  S
N3268      H3271   1.046       .  S
N3268      H3272   1.046       .  S
C3277      C3278   1.417       .  A
C3277      C3282   1.407       .  A
C3278      C3279   1.415       .  A
C3278      N3283   1.438       .  S
C3279      C3280   1.408       .  A
C3279      H3284   1.084       .  S
C3280      C3285   1.503       .  S
C3280      C3281   1.411       .  A
C3281      C3282   1.411       .  A
C3281      N3286   1.437       .  S
C3282      H3287   1.084       .  S
N3283      H3303   1.045       .  S
N3283      H3304   1.046       .  S
C3285      C3288   1.407       .  A
C3285      C3292   1.410       .  A
N3286      H3301   1.046       .  S
N3286      H3302   1.046       .  S
C3288      C3289   1.417       .  A
C3288      H3293   1.083       .  S
C3289      C3290   1.418       .  A
C3289      N3294   1.436       .  S
C3290      C3291   1.411       .  A
C3291      C3292   1.411       .  A
C3291      H3295   1.083       .  S
C3292      N3296   1.438       .  S
N3294      H3297   1.045       .  S
N3294      H3298   1.045       .  S
N3296      H3299   1.045       .  S
N3296      H3300   1.046       .  S
C3305      C3306   1.420       .  A
C3305      C3310   1.415       .  A
C3306      C3307   1.409       .  A
C3306      N3311   1.433       .  S
C3307      C3308   1.403       .  A
C3307      H3312   1.084       .  S
C3308      C3313   1.499       .  S
C3308      C3309   1.411       .  A
C3309      C3310   1.411       .  A
C3309      N3314   1.439       .  S
C3310      H3315   1.074       .  S
N3311      H3331   1.046       .  S
N3311      H3332   1.045       .  S
C3313      C3316   1.406       .  A
C3313      C3320   1.416       .  A
N3314      H3329   1.045       .  S
N3314      H3330   1.046       .  S
C3316      C3317   1.407       .  A
C3316      H3321   1.083       .  S
C3317      C3318   1.410       .  A
C3317      N3322   1.439       .  S
C3318      C3319   1.403       .  A
C3319      C3320   1.412       .  A
C3319      H3323   1.084       .  S
C3320      N3324   1.437       .  S
N3322      H3325   1.046       .  S
N3322      H3326   1.046       .  S
N3324      H3327   1.046       .  S
N3324      H3328   1.045       .  S
C3333      C3334   1.411       .  A
C3333      C3338   1.405       .  A
C3334      C3335   1.409       .  A
C3334      N3339   1.432       .  S
C3335      C3336   1.404       .  A
C3335      H3340   1.084       .  S
C3336      C3341   1.489       .  S
C3336      C3337   1.411       .  A
C3337      C3338   1.409       .  A
C3337      N3342   1.438       .  S
C3338      H3343   1.084       .  S
N3339      H3359   1.045       .  S
N3339      H3360   1.045       .  S
C3341      C3344   1.403       .  A
C3341      C3348   1.409       .  A
N3342      H3357   1.046       .  S
N3342      H3358   1.045       .  S
C3344      C3345   1.413       .  A
C3344      H3349   1.083       .  S
C3345      C3346   1.416       .  A
C3345      N3350   1.437       .  S
C3346      C3347   1.409       .  A
C3347      C3348   1.408       .  A
C3347      H3351   1.082       .  S
C3348      N3352   1.438       .  S
N3350      H3353   1.046       .  S
N3350      H3354   1.046       .  S
N3352      H3355   1.046       .  S
N3352      H3356   1.045       .  S
C3361      C3362   1.416       .  A
C3361      C3366   1.407       .  A
C3362      C3363   1.398       .  A
C3362      N3367   1.433       .  S
C3363      C3364   1.396       .  A
C3363      H3368   1.084       .  S
C3364      C3369   1.468       .  S
C3364      C3365   1.406       .  A
C3365      C3366   1.404       .  A
C3365      N3370   1.438       .  S
C3366      H3371   1.083       .  S
N3367      H3387   1.046       .  S
N3367      H3388   1.046       .  S
C3369      C3372   1.400       .  A
C3369      C3376   1.408       .  A
N3370      H3385   1.046       .  S
N3370      H3386   1.046       .  S
C3372      C3373   1.400       .  A
C3372      H3377   1.084       .  S
C3373      C3374   1.407       .  A
C3373      N3378   1.437       .  S
C3374      C3375   1.401       .  A
C3375      C3376   1.402       .  A
C3375      H3379   1.084       .  S
C3376      N3380   1.437       .  S
N3378      H3381   1.046       .  S
N3378      H3382   1.045       .  S
N3380      H3383   1.046       .  S
N3380      H3384   1.046       .  S
C3389      C3390   1.407       .  A
C3389      C3394   1.399       .  A
C3390      C3391   1.402       .  A
C3390      N3395   1.438       .  S
C3391      C3392   1.402       .  A
C3391      H3396   1.084       .  S
C3392      C3397   1.473       .  S
C3392      C3393   1.409       .  A
C3393      C3394   1.401       .  A
C3393      N3398   1.437       .  S
C3394      H3399   1.084       .  S
N3395      H3415   1.046       .  S
N3395      H3416   1.046       .  S
C3397      C3400   1.400       .  A
C3397      C3404   1.405       .  A
N3398      H3413   1.046       .  S
N3398      H3414   1.046       .  S
C3400      C3401   1.404       .  A
C3400      H3405   1.084       .  S
C3401      C3402   1.419       .  A
C3401      N3406   1.439       .  S
C3402      C3403   1.406       .  A
C3403      C3404   1.400       .  A
C3403      H3407   1.083       .  S
C3404      N3408   1.438       .  S
N3406      H3409   1.046       .  S
N3406      H3410   1.046       .  S
N3408      H3411   1.046       .  S
N3408      H3412   1.046       .  S
C3417      C3418   1.415       .  A
C3417      C3422   1.402       .  A
C3418      C3419   1.399       .  A
C3418      N3423   1.439       .  S
C3419      C3420   1.400       .  A
C3419      H3424   1.084       .  S
C3420      C3425   1.471       .  S
C3420      C3421   1.406       .  A
C3421      C3422   1.401       .  A
C3421      N3426   1.438       .  S
C3422      H3427   1.084       .  S
N3423      H3443   1.043       .  S
N3423      H3444   1.045       .  S
C3425      C3428   1.398       .  A
C3425      C3432   1.406       .  A
N3426      H3441   1.045       .  S
N3426      H3442   1.046       .  S
C3428      C3429   1.401       .  A
C3428      H3433   1.084       .  S
C3429      C3430   1.418       .  A
C3429      N3434   1.439       .  S
C3430      C3431   1.405       .  A
C3431      C3432   1.402       .  A
C3431      H3435   1.083       .  S
C3432      N3436   1.438       .  S
N3434      H3437   1.046       .  S
N3434      H3438   1.046       .  S
N3436      H3439   1.046       .  S
N3436      H3440   1.046       .  S
C3445      C3446   1.421       .  A
C3445      C3450   1.409       .  A
C3446      C3447   1.404       .  A
C3446      N3451   1.438       .  S
C3447      C3448   1.399       .  A
C3447      H3452   1.084       .  S
C3448      C3453   1.476       .  S
C3448      C3449   1.406       .  A
C3449      C3450   1.401       .  A
C3449      N3454   1.438       .  S
C3450      H3455   1.083       .  S
N3451      H3471   1.045       .  S
N3451      H3472   1.046       .  S
C3453      C3456   1.400       .  A
C3453      C3460   1.409       .  A
N3454      H3469   1.046       .  S
N3454      H3470   1.046       .  S
C3456      C3457   1.396       .  A
C3456      H3461   1.084       .  S
C3457      C3458   1.417       .  A
C3457      N3462   1.438       .  S
C3458      C3459   1.404       .  A
C3459      C3460   1.404       .  A
C3459      H3463   1.084       .  S
C3460      N3464   1.438       .  S
N3462      H3465   1.045       .  S
N3462      H3466   1.042       .  S
N3464      H3467   1.046       .  S
N3464      H3468   1.046       .  S
C3473      C3474   1.417       .  A
C3473      C3478   1.401       .  A
C3474      C3475   1.411       .  A
C3474      N3479   1.439       .  S
C3475      C3476   1.405       .  A
C3475      H3480   1.083       .  S
C3476      C3481   1.501       .  S
C3476      C3477   1.415       .  A
C3477      C3478   1.411       .  A
C3477      N3482   1.438       .  S
C3478      H3483   1.077       .  S
N3479      H3499   1.045       .  S
N3479      H3500   1.045       .  S
C3481      C3484   1.407       .  A
C3481      C3488   1.417       .  A
N3482      H3497   1.046       .  S
N3482      H3498   1.046       .  S
C3484      C3485   1.409       .  A
C3484      H3489   1.083       .  S
C3485      C3486   1.410       .  A
C3485      N3490   1.438       .  S
C3486      C3487   1.404       .  A
C3487      C3488   1.412       .  A
C3487      H3491   1.084       .  S
C3488      N3492   1.438       .  S
N3490      H3493   1.046       .  S
N3490      H3494   1.046       .  S
N3492      H3495   1.046       .  S
N3492      H3496   1.046       .  S
C3501      C3502   1.411       .  A
C3501      C3506   1.410       .  A
C3502      C3503   1.410       .  A
C3502      N3507   1.428       .  S
C3503      C3504   1.407       .  A
C3503      H3508   1.084       .  S
C3504      C3509   1.498       .  S
C3504      C3505   1.411       .  A
C3505      C3506   1.407       .  A
C3505      N3510   1.438       .  S
C3506      H3511   1.083       .  S
N3507      H3527   1.046       .  S
N3507      H3528   1.045       .  S
C3509      C3512   1.407       .  A
C3509      C3516   1.412       .  A
N3510      H3525   1.045       .  S
N3510      H3526   1.046       .  S
C3512      C3513   1.411       .  A
C3512      H3517   1.083       .  S
C3513      C3514   1.413       .  A
C3513      N3518   1.435       .  S
C3514      C3515   1.410       .  A
C3515      C3516   1.407       .  A
C3515      H3519   1.084       .  S
C3516      N3520   1.438       .  S
N3518      H3521   1.046       .  S
N3518      H3522   1.043       .  S
N3520      H3523   1.046       .  S
N3520      H3524   1.046       .  S
C3529      C3530   1.416       .  A
C3529      C3534   1.410       .  A
C3530      C3531   1.416       .  A
C3530      N3535   1.435       .  S
C3531      C3532   1.405       .  A
C3531      H3536   1.084       .  S
C3532      C3537   1.494       .  S
C3532      C3533   1.408       .  A
C3533      C3534   1.409       .  A
C3533      N3538   1.438       .  S
C3534      H3539   1.084       .  S
N3535      H3555   1.044       .  S
N3535      H3556   1.046       .  S
C3537      C3540   1.405       .  A
C3537      C3544   1.413       .  A
N3538      H3553   1.046       .  S
N3538      H3554   1.046       .  S
C3540      C3541   1.410       .  A
C3540      H3545   1.084       .  S
C3541      C3542   1.409       .  A
C3541      N3546   1.432       .  S
C3542      C3543   1.404       .  A
C3543      C3544   1.412       .  A
C3543      H3547   1.084       .  S
C3544      N3548   1.437       .  S
N3546      H3549   1.046       .  S
N3546      H3550   1.045       .  S
N3548      H3551   1.046       .  S
N3548      H3552   1.046       .  S
C3557      C3558   1.416       .  A
C3557      C3562   1.407       .  A
C3558      C3559   1.409       .  A
C3558      N3563   1.438       .  S
C3559      C3560   1.402       .  A
C3559      H3564   1.084       .  S
C3560      C3565   1.493       .  S
C3560      C3561   1.411       .  A
C3561      C3562   1.413       .  A
C3561      N3566   1.437       .  S
C3562      H3567   1.084       .  S
N3563      H3583   1.046       .  S
N3563      H3584   1.046       .  S
C3565      C3568   1.401       .  A
C3565      C3572   1.406       .  A
N3566      H3581   1.046       .  S
N3566      H3582   1.045       .  S
C3568      C3569   1.411       .  A
C3568      H3573   1.084       .  S
C3569      C3570   1.421       .  A
C3569      N3574   1.432       .  S
C3570      C3571   1.417       .  A
C3571      C3572   1.412       .  A
C3571      H3575   1.074       .  S
C3572      N3576   1.438       .  S
N3574      H3577   1.046       .  S
N3574      H3578   1.046       .  S
N3576      H3579   1.045       .  S
N3576      H3580   1.045       .  S
