geometry optimzed in LAMMPS
_audit_creation_date              2020-11-30 
_audit_creation_method            'lammps2cif' 
_symmetry_space_group_name_H-M    'P1' 
_symmetry_Int_Tables_number       1 
_symmetry_cell_setting            triclinic 
loop_ 
_symmetry_equiv_pos_as_xyz 
  x,y,z 
_cell_length_a                    76.93265952 
_cell_length_b                    76.9719181336758 
_cell_length_c                    76.87873358138243 
_cell_angle_alpha                 90.06372632952639 
_cell_angle_beta                  90.02074062431187 
_cell_angle_gamma                 90.05978573266805 
loop_ 
_atom_site_label 
_atom_site_type_symbol 
_atom_site_fract_x 
_atom_site_fract_y 
_atom_site_fract_z 
_atom_site_charge 
C1          C  0.42212173  0.42550073  0.60005600     0.80700
N2          N  0.43746933  0.41905506  0.59417223    -0.77600
C3          C  0.44692265  0.42776275  0.58208605     0.83100
N4          N  0.44071612  0.44304315  0.57576775    -0.77600
C5          C  0.42542202  0.44983917  0.58151573     0.83200
N6          N  0.41624295  0.44094184  0.59376633    -0.79300
C7          C  0.38517719  0.54240536  0.55783800     0.80700
N8          N  0.38997450  0.52639860  0.56355236    -0.77600
C9          C  0.40051041  0.51616834  0.55376178     0.83100
N10         N  0.40632161  0.52208868  0.53814731    -0.77600
C11         C  0.40146099  0.53795852  0.53206940     0.83200
N12         N  0.39088932  0.54803336  0.54206318    -0.79300
C13         C  0.53850596  0.38214827  0.56051680     0.80700
N14         N  0.54493560  0.38804450  0.54513185    -0.77600
C15         C  0.53619197  0.40019313  0.53577804     0.83100
N16         N  0.52086322  0.40645362  0.54195324    -0.77600
C17         C  0.51392599  0.40049519  0.55711827     0.83200
N18         N  0.52295153  0.38832161  0.56626130    -0.79300
C19         C  0.57939808  0.42104635  0.44284128     0.80700
N20         N  0.57493123  0.43733172  0.43746873    -0.77600
C21         C  0.56440015  0.44751216  0.44742391     0.83100
N22         N  0.55838130  0.44127909  0.46283088    -0.77600
C23         C  0.56292086  0.42523258  0.46867695     0.83200
N24         N  0.57341766  0.41525400  0.45848535    -0.79300
C25         C  0.54723405  0.54228912  0.40712665     0.80700
N26         N  0.55250362  0.52633320  0.41272877    -0.77600
C27         C  0.54284046  0.51712437  0.42441618     0.83100
N28         N  0.52766273  0.52414983  0.43025650    -0.77600
C29         C  0.52201165  0.53985707  0.42446612     0.83200
N30         N  0.53190145  0.54887779  0.41294458    -0.79300
C31         C  0.42717654  0.58002201  0.44066837     0.80700
N32         N  0.42019595  0.57384057  0.45566933    -0.77600
C33         C  0.42926054  0.56256563  0.46575875     0.83100
N34         N  0.44533771  0.55728935  0.46065396    -0.77600
C35         C  0.45268195  0.56351302  0.44578032     0.83200
N36         N  0.44346573  0.57499912  0.43590382    -0.79300
C37         C  0.58265226  0.04175329  0.05968653     0.80700
N38         N  0.57695586  0.04778879  0.04409436    -0.77600
C39         C  0.56509132  0.03874422  0.03461814     0.83100
N40         N  0.55887677  0.02345433  0.04094975    -0.77600
C41         C  0.56460986  0.01715930  0.05641830     0.83200
N42         N  0.57652654  0.02631207  0.06574964    -0.79300
C43         C  0.54480247  0.08076210  0.94206334     0.80700
N44         N  0.55075945  0.07506130  0.95769657    -0.77600
C45         C  0.54115946  0.06385452  0.96737076     0.83100
N46         N  0.52548068  0.05837649  0.96140602    -0.77600
C47         C  0.51928360  0.06408762  0.94588839     0.83200
N48         N  0.52902113  0.07525732  0.93621736    -0.79300
C49         C  0.42718569  0.04325197  0.90431721     0.80700
N50         N  0.42101068  0.02760643  0.90978203    -0.77600
C51         C  0.43014840  0.01791792  0.92137236     0.83100
N52         N  0.44566278  0.02383029  0.92744896    -0.77600
C53         C  0.45206850  0.03930732  0.92185547     0.83200
N54         N  0.44278645  0.04898095  0.91037875    -0.79300
C55         C  0.54305498  0.92531527  0.09885863     0.80700
N56         N  0.52725344  0.91940825  0.09342990    -0.77600
C57         C  0.51760788  0.92875702  0.08192991     0.83100
N58         N  0.52383509  0.94416634  0.07595056    -0.77600
C59         C  0.53954202  0.95027372  0.08128056     0.83200
N60         N  0.54911520  0.94075608  0.09269482    -0.79300
C61         C  0.42394286  0.88805527  0.06043492     0.80700
N62         N  0.41792673  0.89402683  0.04487501    -0.77600
C63         C  0.42752679  0.90538777  0.03530556     0.83100
N64         N  0.44323622  0.91080200  0.04135158    -0.77600
C65         C  0.44955963  0.90496431  0.05682063     0.83200
N66         N  0.43977629  0.89355762  0.06619531    -0.79300
C67         C  0.38863131  0.92507716  0.94126646     0.80700
N68         N  0.39389750  0.94101987  0.93574270    -0.77600
C69         C  0.40451580  0.95102711  0.94577108     0.83100
N70         N  0.40969691  0.94500579  0.96158542    -0.77600
C71         C  0.40450087  0.92909856  0.96726034     0.83200
N72         N  0.39403768  0.91913184  0.95703742    -0.79300
C73         C  0.04476218  0.57976158  0.05975680     0.80700
N74         N  0.02911683  0.57387467  0.06558618    -0.77600
C75         C  0.01955330  0.56250025  0.05599181     0.83100
N76         N  0.02589159  0.55664920  0.04053656    -0.77600
C77         C  0.04163581  0.56219773  0.03462221     0.83200
N78         N  0.05089506  0.57383832  0.04422906    -0.79300
C79         C  0.08934393  0.53492158  0.94562428     0.80700
N80         N  0.08371884  0.54152207  0.96109913    -0.77600
C81         C  0.07098746  0.53336793  0.97036177     0.83100
N82         N  0.06409651  0.51840141  0.96395485    -0.77600
C83         C  0.06964308  0.51150532  0.94866498     0.83200
N84         N  0.08221879  0.51991903  0.93950851    -0.79300
C85         C  0.04047481  0.42346561  0.90146649     0.80700
N86         N  0.02493976  0.41749005  0.90742597    -0.77600
C87         C  0.01608207  0.42653170  0.91978468     0.83100
N88         N  0.02316430  0.44133144  0.92641979    -0.77600
C89         C  0.03868630  0.44751382  0.92058570     0.83200
N90         N  0.04710082  0.43849824  0.90791980    -0.79300
C91         C  0.92684842  0.54205599  0.09771784     0.80700
N92         N  0.94263551  0.54787675  0.09218316    -0.77600
C93         C  0.95240395  0.53813164  0.08111822     0.83100
N94         N  0.94630470  0.52250167  0.07552032    -0.77600
C95         C  0.93056304  0.51652668  0.08098279     0.83200
N96         N  0.92092495  0.52636866  0.09207131    -0.79300
C97         C  0.88607719  0.42447044  0.05963703     0.80700
N98         N  0.89211119  0.44013435  0.06531471    -0.77600
C99         C  0.90393704  0.44942507  0.05594596     0.83100
N100        N  0.90964194  0.44274175  0.04055927    -0.77600
C101        C  0.90363703  0.42722738  0.03457268     0.83200
N102        N  0.89187118  0.41814767  0.04413685    -0.79300
C103        C  0.92274296  0.38548265  0.94127839     0.80700
N104        N  0.93855934  0.39106571  0.93564569    -0.77600
C105        C  0.94824717  0.40243350  0.94516111     0.83100
N106        N  0.94189678  0.40801715  0.96070728    -0.77600
C107        C  0.92627755  0.40238216  0.96672591     0.83200
N108        N  0.91663770  0.39119377  0.95692491    -0.79300
C109        C  0.04158785  0.03942829  0.60117360     0.80700
N110        N  0.04662135  0.02318486  0.59622839    -0.77600
C111        C  0.03709802  0.01392664  0.58452640     0.83100
N112        N  0.02235142  0.02095947  0.57776697    -0.77600
C113        C  0.01705361  0.03707774  0.58271530     0.83200
N114        N  0.02672844  0.04628580  0.59436188    -0.79300
C115        C  0.07715906  0.92026035  0.56381905     0.80700
N116        N  0.07110259  0.91422651  0.54832974    -0.77600
C117        C  0.05946227  0.92358537  0.53895817     0.83100
N118        N  0.05394174  0.93923710  0.54500624    -0.77600
C119        C  0.05985056  0.94552709  0.56048249     0.83200
N120        N  0.07145506  0.93593751  0.56981948    -0.79300
C121        C  0.04037212  0.88126105  0.44638249     0.80700
N122        N  0.04596755  0.88693007  0.46221917    -0.77600
C123        C  0.03615103  0.89819848  0.47170165     0.83100
N124        N  0.02068992  0.90387172  0.46528203    -0.77600
C125        C  0.01496806  0.89841363  0.44944122     0.83200
N126        N  0.02489935  0.88712671  0.44013566    -0.79300
C127        C  0.92726183  0.08132280  0.55547891     0.80700
N128        N  0.94260560  0.07566140  0.56224623    -0.77600
C129        C  0.95243338  0.06382726  0.55348456     0.83100
N130        N  0.94677923  0.05763720  0.53785764    -0.77600
C131        C  0.93145423  0.06326901  0.53100319     0.83200
N132        N  0.92177136  0.07508083  0.53987252    -0.79300
C133        C  0.88651008  0.03909289  0.44050265     0.80700
N134        N  0.89256144  0.04537435  0.45592201    -0.77600
C135        C  0.90470508  0.03640427  0.46516848     0.83100
N136        N  0.91067619  0.02099240  0.45885176    -0.77600
C137        C  0.90458999  0.01452661  0.44354146     0.83200
N138        N  0.89254661  0.02365319  0.43441682    -0.79300
C139        C  0.92516051  0.92115509  0.40269096     0.80700
N140        N  0.91968367  0.93722818  0.40759580    -0.77600
C141        C  0.92886305  0.94677021  0.41936090     0.83100
N142        N  0.94373146  0.94001917  0.42614332    -0.77600
C143        C  0.94952733  0.92412788  0.42109126     0.83200
N144        N  0.94018373  0.91469559  0.40940862    -0.79300
N145        N  0.86391003  0.59174479  0.16377387    -0.26800
N146        N  0.87592087  0.60404307  0.16380101    -0.34700
C147        C  0.88885258  0.59940538  0.15294487     0.01500
C148        C  0.88484567  0.58338717  0.14569109     0.07500
C149        C  0.86890079  0.57896026  0.15287818    -0.05600
H150        H  0.90037628  0.60710664  0.15054873     0.08200
H151        H  0.86156665  0.56719107  0.15051807     0.09400
Cu152      Cu  0.87417948  0.62642494  0.17894986     0.44200
Cu153      Cu  0.84142906  0.59301695  0.17892101     0.42000
Cu154      Cu  0.83409719  0.63297067  0.20327188     0.43900
N155        N  0.86979889  0.64727074  0.19567834    -0.34200
N156        N  0.85510998  0.64985425  0.20423942    -0.28500
C157        C  0.85668858  0.66422850  0.21411757    -0.04600
C158        C  0.87319266  0.67093893  0.21174759     0.07700
C159        C  0.88114595  0.65986211  0.20000132     0.01500
H160        H  0.84675000  0.66908207  0.22281008     0.09100
H161        H  0.89429825  0.66074163  0.19511193     0.08200
N162        N  0.81723592  0.61192615  0.20370238    -0.35700
N163        N  0.82015170  0.59724153  0.19523278    -0.27800
C164        C  0.80761274  0.58577404  0.19937479    -0.03100
C165        C  0.79620123  0.59364485  0.21086487     0.05500
C166        C  0.80267393  0.61023842  0.21328602     0.03600
H167        H  0.80702111  0.57256187  0.19459103     0.08700
H168        H  0.79762271  0.62010287  0.22194342     0.07600
N169        N  0.88412325  0.75307851  0.26889033    -0.26800
N170        N  0.89897881  0.75929357  0.27498832    -0.34700
C171        C  0.89573492  0.77336243  0.28480331     0.01500
C172        C  0.87803311  0.77634438  0.28482387     0.07500
C173        C  0.87102977  0.76327617  0.27455971    -0.05600
H174        H  0.90564547  0.78113197  0.29108678     0.08200
H175        H  0.85745649  0.76132564  0.27143545     0.09400
Cu176      Cu  0.92343562  0.74958614  0.26916254     0.44200
Cu177      Cu  0.88248926  0.73105031  0.25301923     0.42000
Cu178      Cu  0.92426647  0.71488474  0.23844474     0.43900
N179        N  0.94631703  0.73959242  0.25904565    -0.34200
N180        N  0.94646309  0.72682494  0.24755740    -0.28500
C181        C  0.96295077  0.72329612  0.24308462    -0.04600
C182        C  0.97373819  0.73441283  0.25217852     0.07700
C183        C  0.96279236  0.74458349  0.26221278     0.01500
H184        H  0.96675365  0.71339159  0.23385004     0.09100
H185        H  0.96648389  0.75490524  0.27103810     0.08200
N186        N  0.90086158  0.70368302  0.23169589    -0.35700
N187        N  0.88552083  0.70916853  0.23716576    -0.27800
C188        C  0.87316905  0.69844060  0.23083529    -0.03100
C189        C  0.88120885  0.68578559  0.22082046     0.05500
C190        C  0.89872842  0.68955004  0.22166454     0.03600
H191        H  0.85939852  0.69976528  0.23331720     0.08700
H192        H  0.90924094  0.68235659  0.21571234     0.07600
N193        N  0.85056996  0.81220281  0.29947323    -0.26800
N194        N  0.86469159  0.81474706  0.30898198    -0.34700
C195        C  0.87623087  0.80212711  0.30553093     0.01500
C196        C  0.86909387  0.79099362  0.29335331     0.07500
C197        C  0.85276937  0.79772162  0.28981058    -0.05600
H198        H  0.88905458  0.80133568  0.31125145     0.08200
H199        H  0.84346398  0.79284974  0.28043843     0.09400
Cu200      Cu  0.86870521  0.83562117  0.32564762     0.44200
Cu201      Cu  0.82969406  0.82948937  0.29910579     0.42000
Cu202      Cu  0.83781306  0.86965211  0.32383861     0.43900
N203        N  0.87157391  0.85845701  0.33976396    -0.34200
N204        N  0.86017455  0.87124749  0.33896579    -0.28500
C205        C  0.86574746  0.88446962  0.34902535    -0.04600
C206        C  0.88142540  0.87973865  0.35656616     0.07700
C207        C  0.88468434  0.86313701  0.35038815     0.01500
H208        H  0.85892429  0.89663950  0.35070335     0.09100
H209        H  0.89591205  0.85516229  0.35318871     0.08200
N210        N  0.81642913  0.86546471  0.30780430    -0.35700
N211        N  0.81315841  0.85096655  0.29910613    -0.27800
C212        C  0.79832389  0.85304059  0.28997706    -0.03100
C213        C  0.79210919  0.86965488  0.29300392     0.05500
C214        C  0.80391652  0.87711532  0.30432497     0.03600
H215        H  0.79278852  0.84337297  0.28137091     0.08700
H216        H  0.80356210  0.89016187  0.30955363     0.07600
N217        N  0.59904486  0.64645777  0.30515123    -0.26800
N218        N  0.61292553  0.64872691  0.29522156    -0.34700
C219        C  0.61065093  0.66308505  0.28543874     0.01500
C220        C  0.59452546  0.67009834  0.28925621     0.07500
C221        C  0.58754787  0.65919730  0.30177153    -0.05600
H222        H  0.61984234  0.66776504  0.27587584     0.08200
H223        H  0.57494613  0.66035652  0.30789982     0.09400
Cu224      Cu  0.63392397  0.63158659  0.29450631     0.44200
Cu225      Cu  0.59579532  0.62593780  0.32269380     0.42000
Cu226      Cu  0.62858364  0.59302122  0.32142516     0.43900
N227        N  0.65154553  0.61098966  0.29483764    -0.34200
N228        N  0.64930920  0.59693205  0.30447838    -0.28500
C229        C  0.66245405  0.58583638  0.30147911    -0.04600
C230        C  0.67360312  0.59322153  0.28945642     0.07700
C231        C  0.66630133  0.60919637  0.28551941     0.01500
H232        H  0.66377439  0.57327905  0.30763590     0.09100
H233        H  0.67118953  0.61869166  0.27637053     0.08200
N234        N  0.60709006  0.59160362  0.33779676    -0.35700
N235        N  0.59501015  0.60378671  0.33842351    -0.27800
C236        C  0.58283111  0.59908125  0.35012726    -0.03100
C237        C  0.58742385  0.58312312  0.35717692     0.05500
C238        C  0.60290978  0.57882997  0.34901265     0.03600
H239        H  0.57131486  0.60657470  0.35308897     0.08700
H240        H  0.61055792  0.56722047  0.35104064     0.07600
N241        N  0.59558884  0.81909743  0.19849721    -0.26800
N242        N  0.61035178  0.81595542  0.20676152    -0.34700
C243        C  0.60900706  0.80074264  0.21531867     0.01500
C244        C  0.59259267  0.79401327  0.21239264     0.07500
C245        C  0.58445030  0.80599788  0.20170437    -0.05600
H246        H  0.61908624  0.79524129  0.22344129     0.08200
H247        H  0.57132467  0.80532500  0.19670733     0.09400
Cu248      Cu  0.63130055  0.83296423  0.20708297     0.44200
Cu249      Cu  0.59085569  0.84112652  0.18330119     0.42000
Cu250      Cu  0.62444432  0.87335735  0.18360052     0.43900
N251        N  0.64815043  0.85399787  0.20832900    -0.34200
N252        N  0.64537389  0.86877226  0.20001479    -0.28500
C253        C  0.65792717  0.88014078  0.20429423    -0.04600
C254        C  0.66920622  0.87214904  0.21577300     0.07700
C255        C  0.66265874  0.85555673  0.21803264     0.01500
H256        H  0.65864748  0.89334477  0.19952873     0.09100
H257        H  0.66772760  0.84555051  0.22649090     0.08200
N258        N  0.60227144  0.87551460  0.16836153    -0.35700
N259        N  0.58975882  0.86374087  0.16828334    -0.27800
C260        C  0.57724811  0.86886727  0.15713648    -0.03100
C261        C  0.58213073  0.88462942  0.14980171     0.05500
C262        C  0.59811029  0.88837932  0.15727011     0.03600
H263        H  0.56545906  0.86164337  0.15453400     0.08700
H264        H  0.60620512  0.89959342  0.15473539     0.07600
N265        N  0.58042032  0.75374419  0.23469813    -0.26800
N266        N  0.56521143  0.75915285  0.22878984    -0.34700
C267        C  0.56739175  0.77389371  0.21973676     0.01500
C268        C  0.58479599  0.77819986  0.21994915     0.07500
C269        C  0.59274230  0.76516355  0.22958419    -0.05600
H270        H  0.55692345  0.78121030  0.21386400     0.08200
H271        H  0.60639495  0.76414894  0.23276631     0.09400
Cu272      Cu  0.54166396  0.74751809  0.23412500     0.44200
Cu273      Cu  0.58304010  0.73118659  0.24983240     0.42000
Cu274      Cu  0.54139294  0.71378056  0.26568728     0.43900
N275        N  0.51899365  0.73718804  0.24400023    -0.34200
N276        N  0.51876391  0.72487249  0.25594489    -0.28500
C277        C  0.50213202  0.72126700  0.26002402    -0.04600
C278        C  0.49145632  0.73186182  0.25012666     0.07700
C279        C  0.50259467  0.74177993  0.24012242     0.01500
H280        H  0.49813243  0.71166125  0.26947957     0.09100
H281        H  0.49908790  0.75172406  0.23083615     0.08200
N282        N  0.56554164  0.70305020  0.27135907    -0.35700
N283        N  0.58059522  0.70884588  0.26533218    -0.27800
C284        C  0.59332715  0.69810607  0.27083640    -0.03100
C285        C  0.58592238  0.68512050  0.28092989     0.05500
C286        C  0.56832861  0.68873179  0.28097685     0.03600
H287        H  0.60695727  0.69965092  0.26775003     0.08700
H288        H  0.55818147  0.68122956  0.28718344     0.07600
N289        N  0.75296078  0.88398512  0.27016619    -0.26800
N290        N  0.75956974  0.89901032  0.27534014    -0.34700
C291        C  0.77416752  0.89605930  0.28444110     0.01500
C292        C  0.77707087  0.87836498  0.28495295     0.07500
C293        C  0.76340355  0.87105670  0.27573418    -0.05600
H294        H  0.78231476  0.90614703  0.28990992     0.08200
H295        H  0.76122651  0.85739747  0.27322865     0.09400
Cu296      Cu  0.74957888  0.92325059  0.26923574     0.44200
Cu297      Cu  0.73015086  0.88198013  0.25555307     0.42000
Cu298      Cu  0.71369190  0.92376521  0.24027068     0.43900
N299        N  0.73918930  0.94606076  0.25944336    -0.34200
N300        N  0.72591338  0.94619310  0.24855585    -0.28500
C301        C  0.72225966  0.96269475  0.24418129    -0.04600
C302        C  0.73384186  0.97347386  0.25273679     0.07700
C303        C  0.74439929  0.96250540  0.26230981     0.01500
H304        H  0.71199928  0.96651561  0.23535848     0.09100
H305        H  0.75516178  0.96616109  0.27060644     0.08200
N306        N  0.70234254  0.90010003  0.23458398    -0.35700
N307        N  0.70788069  0.88486740  0.24029100    -0.27800
C308        C  0.69697632  0.87241205  0.23448535    -0.03100
C309        C  0.68414801  0.88026133  0.22457338     0.05500
C310        C  0.68799151  0.89777077  0.22493039     0.03600
H311        H  0.69834162  0.85868830  0.23720214     0.08700
H312        H  0.68075008  0.90815427  0.21884015     0.07600
N313        N  0.75846009  0.58045643  0.23663979    -0.26800
N314        N  0.76520051  0.56522088  0.23240703    -0.34700
C315        C  0.77920667  0.56767980  0.22228368     0.01500
C316        C  0.78162988  0.58530720  0.22011045     0.07500
C317        C  0.76828490  0.59307957  0.22943462    -0.05600
H318        H  0.78733933  0.55734914  0.21731180     0.08200
H319        H  0.76591623  0.60685802  0.23089415     0.09400
Cu320      Cu  0.75618884  0.54151644  0.24121410     0.44200
Cu321      Cu  0.73620358  0.58292654  0.25215403     0.42000
Cu322      Cu  0.72197896  0.54199313  0.27223904     0.43900
N323        N  0.74679673  0.51918083  0.25276490    -0.34200
N324        N  0.73422654  0.51928015  0.26445654    -0.28500
C325        C  0.73084229  0.50282033  0.26930239    -0.04600
C326        C  0.74185664  0.49188897  0.26017740     0.07700
C327        C  0.75179510  0.50271110  0.24983340     0.01500
H328        H  0.72089804  0.49909266  0.27852340     0.09100
H329        H  0.76177665  0.49891802  0.24068453     0.08200
N330        N  0.70924962  0.56558155  0.27510241    -0.35700
N331        N  0.71393831  0.58036180  0.26765120    -0.27800
C332        C  0.70205649  0.59263844  0.27163684    -0.03100
C333        C  0.68943997  0.58519694  0.28216059     0.05500
C334        C  0.69447873  0.56808404  0.28407165     0.03600
H335        H  0.70253826  0.60594508  0.26716420     0.08700
H336        H  0.68768848  0.55801095  0.29115082     0.07600
N337        N  0.77809076  0.14556970  0.36988935    -0.26800
N338        N  0.78494037  0.14197185  0.38527022    -0.34700
C339        C  0.77921788  0.15375833  0.39687169     0.01500
C340        C  0.76833169  0.16534442  0.38840794     0.07500
C341        C  0.76793801  0.15975890  0.37131486    -0.05600
H342        H  0.78265253  0.15380329  0.41051794     0.08200
H343        H  0.76052500  0.16534545  0.36075438     0.09400
Cu344      Cu  0.80155686  0.12101191  0.39020888     0.44200
Cu345      Cu  0.78187164  0.13055336  0.34775892     0.42000
Cu346      Cu  0.80688634  0.09127986  0.35471523     0.43900
N347        N  0.81741047  0.09897325  0.39162173    -0.34200
N348        N  0.81920314  0.08803913  0.37848133    -0.28500
C349        C  0.83020080  0.07526548  0.38309510    -0.04600
C350        C  0.83576339  0.07826096  0.39998305     0.07700
C351        C  0.82732782  0.09342746  0.40496967     0.01500
H352        H  0.83395689  0.06462331  0.37470109     0.09100
H353        H  0.82850390  0.10006203  0.41732771     0.08200
N354        N  0.79350171  0.09674480  0.33196086    -0.35700
N355        N  0.78457330  0.11114754  0.32918546    -0.27800
C356        C  0.77684656  0.11010744  0.31348717    -0.03100
C357        C  0.78106084  0.09423891  0.30613436     0.05500
C358        C  0.79163427  0.08614616  0.31819998     0.03600
H359        H  0.76812353  0.11979995  0.30822982     0.08700
H360        H  0.79711712  0.07324494  0.31732751     0.07600
N361        N  0.67881734  0.14911409  0.11495693    -0.26800
N362        N  0.68797577  0.15177478  0.12929545    -0.34700
C363        C  0.69642734  0.16706557  0.12792142     0.01500
C364        C  0.69252521  0.17426328  0.11190319     0.07500
C365        C  0.68135638  0.16252594  0.10405384    -0.05600
H366        H  0.70531838  0.17219206  0.13756422     0.08200
H367        H  0.67572816  0.16348847  0.09119837     0.09400
Cu368      Cu  0.68979382  0.13379494  0.14942881     0.44200
Cu369      Cu  0.66378798  0.12709984  0.11011592     0.42000
Cu370      Cu  0.66637600  0.09334823  0.14202578     0.43900
N371        N  0.69122575  0.11239700  0.16591391    -0.34200
N372        N  0.68273939  0.09771471  0.16303944    -0.28500
C373        C  0.68679449  0.08625286  0.17556673    -0.04600
C374        C  0.69836953  0.09404481  0.18691768     0.07700
C375        C  0.70090031  0.11063294  0.18042557     0.01500
H376        H  0.68181176  0.07312192  0.17621422     0.09100
H377        H  0.70938794  0.12056698  0.18564747     0.08200
N378        N  0.65123713  0.09133730  0.11978240    -0.35700
N379        N  0.65026457  0.10374394  0.10795641    -0.27800
C380        C  0.63939687  0.09859516  0.09521212    -0.03100
C381        C  0.63320984  0.08215316  0.09923272     0.05500
C382        C  0.64103133  0.07798251  0.11491111     0.03600
H383        H  0.63608406  0.10632194  0.08394330     0.08700
H384        H  0.63940114  0.06611469  0.12226271     0.07600
N385        N  0.67238353  0.31159816  0.38355812    -0.26800
N386        N  0.68245540  0.30963553  0.36974033    -0.34700
C387        C  0.69159615  0.29477700  0.37138059     0.01500
C388        C  0.68719552  0.28707807  0.38704300     0.07500
C389        C  0.67501557  0.29812839  0.39440258    -0.05600
H390        H  0.70120541  0.29025742  0.36214823     0.08200
H391        H  0.66869400  0.29662106  0.40687152     0.09400
Cu392      Cu  0.68437450  0.32804932  0.35000044     0.44200
Cu393      Cu  0.65588813  0.33286381  0.38759885     0.42000
Cu394      Cu  0.66019594  0.36833939  0.35760883     0.43900
N395        N  0.68656149  0.35008414  0.33444759    -0.34200
N396        N  0.67808552  0.36474091  0.33746898    -0.28500
C397        C  0.68317328  0.37669403  0.32576219    -0.04600
C398        C  0.69531579  0.36922425  0.31476975     0.07700
C399        C  0.69712416  0.35232520  0.32063241     0.01500
H400        H  0.67846853  0.38993109  0.32538702     0.09100
H401        H  0.70585659  0.34253884  0.31558373     0.08200
N402        N  0.64327778  0.36903113  0.37886484    -0.35700
N403        N  0.64157550  0.35589979  0.38980114    -0.27800
C404        C  0.63004253  0.36033173  0.40223538    -0.03100
C405        C  0.62422358  0.37715320  0.39913968     0.05500
C406        C  0.63294243  0.38217526  0.38412793     0.03600
H407        H  0.62637698  0.35200326  0.41295147     0.08700
H408        H  0.63213586  0.39465172  0.37771641     0.07600
N409        N  0.77637806  0.31944876  0.13167769    -0.26800
N410        N  0.78411624  0.32276794  0.11667296    -0.34700
C411        C  0.77934078  0.31063775  0.10501749     0.01500
C412        C  0.76813281  0.29905663  0.11302243     0.07500
C413        C  0.76656113  0.30501309  0.12995045    -0.05600
H414        H  0.78368066  0.31033724  0.09164195     0.08200
H415        H  0.75858588  0.29950682  0.14014765     0.09400
Cu416      Cu  0.80077554  0.34369224  0.11225224     0.44200
Cu417      Cu  0.77889257  0.33536240  0.15344403     0.42000
Cu418      Cu  0.80599288  0.37407603  0.14719201     0.43900
N419        N  0.81727516  0.36514685  0.11070085    -0.34200
N420        N  0.81926514  0.37634940  0.12359335    -0.28500
C421        C  0.83074484  0.38865478  0.11869494    -0.04600
C422        C  0.83628646  0.38506152  0.10187846     0.07700
C423        C  0.82741867  0.37002809  0.09727620     0.01500
H424        H  0.83482522  0.39940551  0.12680612     0.09100
H425        H  0.82823369  0.36316835  0.08501412     0.08200
N426        N  0.79089065  0.36933095  0.16927921    -0.35700
N427        N  0.78130711  0.35523967  0.17167615    -0.27800
C428        C  0.77294921  0.35656831  0.18702620    -0.03100
C429        C  0.77739049  0.37227164  0.19461812     0.05500
C430        C  0.78877021  0.38000187  0.18299818     0.03600
H431        H  0.76387586  0.34704952  0.19200709     0.08700
H432        H  0.79485243  0.39261857  0.18426378     0.07600
N433        N  0.72220861  0.38352479  0.27814854    -0.26800
N434        N  0.71707613  0.39858424  0.28467698    -0.34700
C435        C  0.70659987  0.39570152  0.29835549     0.01500
C436        C  0.70509955  0.37798625  0.30076563     0.07500
C437        C  0.71520661  0.37061724  0.28775325    -0.05600
H438        H  0.70080756  0.40582348  0.30621038     0.08200
H439        H  0.71728925  0.35691024  0.28542474     0.09400
Cu440      Cu  0.72495267  0.42266908  0.27563415     0.44200
Cu441      Cu  0.73857188  0.38161923  0.25641653     0.42000
Cu442      Cu  0.75789867  0.42288956  0.24290373     0.43900
N443        N  0.73587421  0.44531391  0.26606466    -0.34200
N444        N  0.74825021  0.44538919  0.25415718    -0.28500
C445        C  0.75249435  0.46193208  0.25046003    -0.04600
C446        C  0.74227284  0.47277346  0.26054284     0.07700
C447        C  0.73188843  0.46180123  0.27029021     0.01500
H448        H  0.76206875  0.46575750  0.24089363     0.09100
H449        H  0.72203180  0.46549375  0.27961476     0.08200
N450        N  0.76220229  0.39942399  0.23035841    -0.35700
N451        N  0.75493066  0.38447727  0.23478765    -0.27800
C452        C  0.75952358  0.37232045  0.22299435    -0.03100
C453        C  0.77025990  0.38000272  0.21069919     0.05500
C454        C  0.77167504  0.39715205  0.21584258     0.03600
H455        H  0.75516401  0.35895691  0.22321201     0.08700
H456        H  0.77856946  0.40742946  0.20917184     0.07600
N457        N  0.71491120  0.21425600  0.09911987    -0.26800
N458        N  0.71032513  0.20781996  0.08381329    -0.34700
C459        C  0.70132021  0.19306053  0.08618542     0.01500
C460        C  0.70025700  0.18981283  0.10379740     0.07500
C461        C  0.70905897  0.20347025  0.11166944    -0.05600
H462        H  0.69638435  0.18498685  0.07575893     0.08200
H463        H  0.71112222  0.20537600  0.12545300     0.09400
Cu464      Cu  0.71716232  0.21813431  0.05994592     0.44200
Cu465      Cu  0.72920922  0.23734037  0.10194193     0.42000
Cu466      Cu  0.74432645  0.25521306  0.06051432     0.43900
N467        N  0.72709555  0.22907932  0.03750072    -0.34200
N468        N  0.73734786  0.24283933  0.03770393    -0.28500
C469        C  0.74194198  0.24679452  0.02129925    -0.04600
C470        C  0.73414864  0.23491014  0.01026546     0.07700
C471        C  0.72482368  0.22387000  0.02096492     0.01500
H472        H  0.75030057  0.25751901  0.01770857     0.09100
H473        H  0.71706111  0.21280608  0.01706649     0.08200
N474        N  0.74951491  0.26619398  0.08450043    -0.35700
N475        N  0.74400999  0.26016184  0.09964583    -0.27800
C476        C  0.74969194  0.27092857  0.11233179    -0.03100
C477        C  0.75928136  0.28418476  0.10469875     0.05500
C478        C  0.75885440  0.28069962  0.08709782     0.03600
H479        H  0.74715472  0.26917160  0.12605177     0.08700
H480        H  0.76479103  0.28823990  0.07681921     0.07600
N481        N  0.72338038  0.08093636  0.22511356    -0.26800
N482        N  0.71616224  0.06599113  0.22057368    -0.34700
C483        C  0.70598702  0.06851664  0.20660120     0.01500
C484        C  0.70685731  0.08584545  0.20200576     0.07500
C485        C  0.71801488  0.09336591  0.21400232    -0.05600
H486        H  0.69880500  0.05835138  0.20003768     0.08200
H487        H  0.72205582  0.10682159  0.21453953     0.09400
Cu488      Cu  0.72100168  0.04235752  0.23252819     0.44200
Cu489      Cu  0.74047929  0.08353180  0.24601814     0.42000
Cu490      Cu  0.75594991  0.04213888  0.26292835     0.43900
N491        N  0.73028402  0.01981101  0.24392271    -0.34200
N492        N  0.74345673  0.01973146  0.25494423    -0.28500
C493        C  0.74669125  0.00329476  0.25987295    -0.04600
C494        C  0.73497635  0.99250873  0.25150810     0.07700
C495        C  0.72475664  0.00340284  0.24149971     0.01500
H496        H  0.75679601  0.99951915  0.26889301     0.09100
H497        H  0.71417963  0.99969864  0.23298888     0.08200
N498        N  0.76319682  0.06606021  0.27276762    -0.35700
N499        N  0.75726047  0.08118472  0.26719449    -0.27800
C500        C  0.76327205  0.09381696  0.27778285    -0.03100
C501        C  0.77355739  0.08619226  0.29045913     0.05500
C502        C  0.77323682  0.06863407  0.28680988     0.03600
H503        H  0.76003526  0.10742902  0.27660489     0.08700
H504        H  0.77910942  0.05832546  0.29434590     0.07600
N505        N  0.71034749  0.24751587  0.40016911    -0.26800
N506        N  0.70389556  0.25288875  0.41521033    -0.34700
C507        C  0.69444247  0.26732800  0.41262838     0.01500
C508        C  0.69498825  0.27151105  0.39518174     0.07500
C509        C  0.70523690  0.25869963  0.38762442    -0.05600
H510        H  0.68807285  0.27457357  0.42287122     0.08200
H511        H  0.70878338  0.25764812  0.37405800     0.09400
Cu512      Cu  0.70885631  0.24172902  0.43923386     0.44200
Cu513      Cu  0.72613218  0.22527821  0.39772496     0.42000
Cu514      Cu  0.73998028  0.20791269  0.43954587     0.43900
N515        N  0.71816674  0.23085509  0.46205148    -0.34200
N516        N  0.72995344  0.21840543  0.46205536    -0.28500
C517        C  0.73386471  0.21418200  0.47854385    -0.04600
C518        C  0.72403701  0.22449961  0.48947449     0.07700
C519        C  0.71420797  0.23493448  0.47860498     0.01500
H520        H  0.74321012  0.20436940  0.48225383     0.09100
H521        H  0.70503257  0.24487699  0.48241168     0.08200
N522        N  0.74712591  0.19740356  0.41595815    -0.35700
N523        N  0.74204659  0.20319799  0.40057785    -0.27800
C524        C  0.74881314  0.19271119  0.38820699    -0.03100
C525        C  0.75863957  0.17990466  0.39631179     0.05500
C526        C  0.75723014  0.18335365  0.41385568     0.03600
H527        H  0.74678161  0.19430501  0.37437492     0.08700
H528        H  0.76293327  0.17604547  0.42442358     0.07600
N529        N  0.60952007  0.14477355  0.89235130    -0.26800
N530        N  0.59686007  0.14628358  0.88084735    -0.34700
C531        C  0.58348846  0.13610919  0.88569356     0.01500
C532        C  0.58786424  0.12781028  0.90108355     0.07500
C533        C  0.60451099  0.13364540  0.90489300    -0.05600
H534        H  0.57140853  0.13492688  0.87857844     0.08200
H535        H  0.61232264  0.13023630  0.91608207     0.09400
Cu536      Cu  0.59839827  0.16256368  0.85938296     0.44200
Cu537      Cu  0.63273680  0.15840462  0.89023149     0.42000
Cu538      Cu  0.63912712  0.18468017  0.85076078     0.43900
N539        N  0.60214729  0.17989628  0.83903949    -0.34200
N540        N  0.61708200  0.18761721  0.83543268    -0.28500
C541        C  0.61485706  0.19812684  0.82158733    -0.04600
C542        C  0.59764745  0.19706478  0.81642410     0.07700
C543        C  0.59000634  0.18543669  0.82778846     0.01500
H544        H  0.62482545  0.20644406  0.81616868     0.09100
H545        H  0.57653252  0.18141681  0.82800408     0.08200
N546        N  0.65661875  0.18348950  0.87132113    -0.35700
N547        N  0.65409070  0.17429252  0.88564103    -0.27800
C548        C  0.66706817  0.17759125  0.89687958    -0.03100
C549        C  0.67833333  0.18933992  0.88927573     0.05500
C550        C  0.67135685  0.19277580  0.87306598     0.03600
H551        H  0.66797645  0.17214462  0.90981174     0.08700
H552        H  0.67619451  0.20192281  0.86354303     0.07600
N553        N  0.86798948  0.28951286  0.83093763    -0.26800
N554        N  0.85382719  0.27993579  0.82880934    -0.34700
C555        C  0.85547213  0.27037981  0.81417458     0.01500
C556        C  0.87146606  0.27398773  0.80677338     0.07500
C557        C  0.87902140  0.28613984  0.81776810    -0.05600
H558        H  0.84596422  0.26106993  0.80959459     0.08200
H559        H  0.89175724  0.29195335  0.81642581     0.09400
Cu560      Cu  0.83335477  0.27917951  0.84650830     0.44200
Cu561      Cu  0.87242014  0.30644501  0.85195689     0.42000
Cu562      Cu  0.84012958  0.30537341  0.88523793     0.43900
N563        N  0.81686097  0.27880785  0.86796837    -0.34200
N564        N  0.81965282  0.28823389  0.88209100    -0.28500
C565        C  0.80746332  0.28449049  0.89400694    -0.04600
C566        C  0.79636558  0.27219202  0.88707812     0.07700
C567        C  0.80264782  0.26888007  0.87052061     0.01500
H568        H  0.80687982  0.29018384  0.90686594     0.09100
H569        H  0.79759861  0.25958793  0.86123185     0.08200
N570        N  0.86205628  0.32084426  0.88696625    -0.35700
N571        N  0.87416138  0.32138140  0.87479124    -0.27800
C572        C  0.88685690  0.33231164  0.88005579    -0.03100
C573        C  0.88247985  0.33894719  0.89632776     0.05500
C574        C  0.86665039  0.33131438  0.90021842     0.03600
H575        H  0.89848697  0.33513000  0.87266876     0.08700
H576        H  0.85914330  0.33300188  0.91199499     0.07600
N577        N  0.75871680  0.24763774  0.90212668    -0.26800
N578        N  0.76462499  0.25397955  0.91700687    -0.34700
C579        C  0.77866777  0.26386029  0.91381634     0.01500
C580        C  0.78185315  0.26364359  0.89612672     0.07500
C581        C  0.76899657  0.25320758  0.88909049    -0.05600
H582        H  0.78621923  0.27040728  0.92372813     0.08200
H583        H  0.76724469  0.24987144  0.87552880     0.09400
Cu584      Cu  0.75422430  0.24847981  0.94128683     0.44200
Cu585      Cu  0.73712567  0.23150091  0.90018363     0.42000
Cu586      Cu  0.72159071  0.21525551  0.94140561     0.43900
N587        N  0.74290574  0.23908533  0.96388687    -0.34200
N588        N  0.73112142  0.22658684  0.96382053    -0.28500
C589        C  0.72630003  0.22316315  0.98025187    -0.04600
C590        C  0.73546186  0.23406606  0.99121207     0.07700
C591        C  0.74588138  0.24401444  0.98042792     0.01500
H592        H  0.71667031  0.21358109  0.98389419     0.09100
H593        H  0.75495921  0.25404522  0.98428562     0.08200
N594        N  0.71082919  0.20849182  0.91773604    -0.35700
N595        N  0.71606525  0.21475374  0.90261327    -0.27800
C596        C  0.70553849  0.20865116  0.89000289    -0.03100
C597        C  0.69324050  0.19793994  0.89762047     0.05500
C598        C  0.69700769  0.19813218  0.91518370     0.03600
H599        H  0.70667577  0.21188503  0.87636307     0.08700
H600        H  0.68989238  0.19168835  0.92546184     0.07600
N601        N  0.60917009  0.27644941  0.66975894    -0.26800
N602        N  0.59531894  0.28640975  0.66763770    -0.34700
C603        C  0.58462427  0.28428064  0.68130740     0.01500
C604        C  0.59208071  0.27247976  0.69263008     0.07500
C605        C  0.60765311  0.26780044  0.68492097    -0.05600
H606        H  0.57221421  0.29070009  0.68276101     0.08200
H607        H  0.61699764  0.25847043  0.68974875     0.09400
Cu608      Cu  0.59083794  0.30199631  0.64600743     0.44200
Cu609      Cu  0.62902195  0.27428945  0.65143888     0.42000
Cu610      Cu  0.62028812  0.29635626  0.61034717     0.43900
N611        N  0.58786129  0.31480078  0.62238556    -0.34200
N612        N  0.59861347  0.31264147  0.60915360    -0.28500
C613        C  0.59322609  0.32259514  0.59578757    -0.04600
C614        C  0.57834615  0.33145678  0.60083587     0.07700
C615        C  0.57536813  0.32615904  0.61780446     0.01500
H616        H  0.59969051  0.32337876  0.58331725     0.09100
H617        H  0.56494311  0.33036331  0.62625623     0.08200
N618        N  0.64183380  0.28046930  0.61485385    -0.35700
N619        N  0.64529248  0.27272154  0.62982127    -0.27800
C620        C  0.66021367  0.26364611  0.62822139    -0.03100
C621        C  0.66636343  0.26569984  0.61141725     0.05500
C622        C  0.65435731  0.27640880  0.60335002     0.03600
H623        H  0.66593931  0.25584673  0.63841524     0.08700
H624        H  0.65467173  0.28093239  0.59003403     0.07600
N625        N  0.87220098  0.18407500  0.65605402    -0.26800
N626        N  0.85724521  0.19188323  0.65936156    -0.34700
C627        C  0.85856142  0.20062131  0.67451348     0.01500
C628        C  0.87515731  0.19828349  0.68104891     0.07500
C629        C  0.88344141  0.18775139  0.66898157    -0.05600
H630        H  0.84824272  0.20827055  0.68023643     0.08200
H631        H  0.89666272  0.18302669  0.66958239     0.09400
Cu632      Cu  0.83582002  0.19059583  0.64289606     0.44200
Cu633      Cu  0.87663965  0.16848188  0.63420124     0.42000
Cu634      Cu  0.84070568  0.16343880  0.60427372     0.43900
N635        N  0.81692128  0.18836852  0.62366301    -0.34200
N636        N  0.81877562  0.17867158  0.60955684    -0.28500
C637        C  0.80464806  0.18071325  0.59942161    -0.04600
C638        C  0.79332551  0.19214956  0.60753813     0.07700
C639        C  0.80153368  0.19671215  0.62290033     0.01500
H640        H  0.80285614  0.17448468  0.58692475     0.09100
H641        H  0.79690217  0.20579269  0.63259114     0.08200
N642        N  0.86427730  0.15010751  0.60159661    -0.35700
N643        N  0.87747619  0.15217704  0.61244299    -0.27800
C644        C  0.89072008  0.14195216  0.60727398    -0.03100
C645        C  0.88568046  0.13291045  0.59248833     0.05500
C646        C  0.86879563  0.13843139  0.58929751     0.03600
H647        H  0.90306390  0.14096319  0.61394520     0.08700
H648        H  0.86042338  0.13428130  0.57877101     0.07600
N649        N  0.75200008  0.21341572  0.59677947    -0.26800
N650        N  0.75649787  0.20665948  0.58158855    -0.34700
C651        C  0.77143268  0.19781216  0.58334818     0.01500
C652        C  0.77687299  0.19906928  0.60040439     0.07500
C653        C  0.76426964  0.20909951  0.60860212    -0.05600
H654        H  0.77813805  0.19140414  0.57277405     0.08200
H655        H  0.76410359  0.21305813  0.62210886     0.09400
Cu656      Cu  0.74355247  0.21054836  0.55834085     0.44200
Cu657      Cu  0.72935280  0.22846593  0.60024014     0.42000
Cu658      Cu  0.70976234  0.24153863  0.55891797     0.43900
N659        N  0.73173089  0.21937013  0.53587308    -0.34200
N660        N  0.71932584  0.23119939  0.53607881    -0.28500
C661        C  0.71452381  0.23475989  0.51964914    -0.04600
C662        C  0.72443593  0.22464406  0.50858388     0.07700
C663        C  0.73520981  0.21503162  0.51929718     0.01500
H664        H  0.70460094  0.24403896  0.51606519     0.09100
H665        H  0.74500820  0.20575423  0.51536423     0.08200
N666        N  0.69967817  0.24783557  0.58298441    -0.35700
N667        N  0.70617794  0.24294830  0.59815245    -0.27800
C668        C  0.69543121  0.24863957  0.61085871    -0.03100
C669        C  0.68172227  0.25758427  0.60319733     0.05500
C670        C  0.68494290  0.25678494  0.58556964     0.03600
H671        H  0.69740029  0.24639335  0.62460986     0.08700
H672        H  0.67691239  0.26195209  0.57524973     0.07600
N673        N  0.88481713  0.24985120  0.76772343    -0.26800
N674        N  0.89983982  0.25608702  0.77336246    -0.34700
C675        C  0.89717934  0.26576032  0.78765626     0.01500
C676        C  0.87966930  0.26561463  0.79150576     0.07500
C677        C  0.87215435  0.25533389  0.77862994    -0.05600
H678        H  0.90740519  0.27201602  0.79503182     0.08200
H679        H  0.85853092  0.25210578  0.77729888     0.09400
Cu680      Cu  0.92390362  0.25041414  0.76286099     0.44200
Cu681      Cu  0.88291285  0.23416779  0.74526873     0.42000
Cu682      Cu  0.92532585  0.21916779  0.72914755     0.43900
N683        N  0.94690086  0.23944465  0.75438503    -0.34200
N684        N  0.94741975  0.22748911  0.74207263    -0.28500
C685        C  0.96394636  0.22221644  0.73994944    -0.04600
C686        C  0.97429909  0.23134985  0.75151143     0.07700
C687        C  0.96307380  0.24218636  0.76043679     0.01500
H688        H  0.96807489  0.21242212  0.73073673     0.09100
H689        H  0.96633371  0.25113920  0.77079629     0.08200
N690        N  0.90190878  0.21428962  0.71679182    -0.35700
N691        N  0.88650330  0.21974554  0.72218840    -0.27800
C692        C  0.87445126  0.21477143  0.71038942    -0.03100
C693        C  0.88272841  0.20573326  0.69710171     0.05500
C694        C  0.90007669  0.20569922  0.70167339     0.03600
H695        H  0.86072282  0.21761782  0.71134188     0.08700
H696        H  0.91072550  0.20014637  0.69435674     0.07600
N697        N  0.58250700  0.22320582  0.77974516    -0.26800
N698        N  0.56777823  0.22017913  0.78809933    -0.34700
C699        C  0.57102826  0.21042032  0.80218158     0.01500
C700        C  0.58865558  0.20722530  0.80293388     0.07500
C701        C  0.59561478  0.21557597  0.78855694    -0.05600
H702        H  0.56123957  0.20614663  0.81133559     0.08200
H703        H  0.60911793  0.21588028  0.78466600     0.09400
Cu704      Cu  0.54366571  0.22943531  0.78071837     0.44200
Cu705      Cu  0.58369962  0.23730937  0.75653903     0.42000
Cu706      Cu  0.54253643  0.25706456  0.74354268     0.43900
N707        N  0.52092119  0.24014461  0.77128773    -0.34200
N708        N  0.52053284  0.25055020  0.75764487    -0.28500
C709        C  0.50395873  0.25497218  0.75433884    -0.04600
C710        C  0.49342652  0.24688663  0.76647129     0.07700
C711        C  0.50460611  0.23759559  0.77703177     0.01500
H712        H  0.49986483  0.26302427  0.74357028     0.09100
H713        H  0.50114520  0.22930747  0.78784931     0.08200
N714        N  0.56543019  0.25929513  0.72950063    -0.35700
N715        N  0.58032840  0.25189357  0.73385013    -0.27800
C716        C  0.59220143  0.25544250  0.72144159    -0.03100
C717        C  0.58439338  0.26566244  0.70882764     0.05500
C718        C  0.56745588  0.26782829  0.71439142     0.03600
H719        H  0.60551153  0.25095741  0.72161849     0.08700
H720        H  0.55721396  0.27484899  0.70779625     0.07600
N721        N  0.09013293  0.36172434  0.83504140    -0.26800
N722        N  0.10117315  0.37473053  0.83306458    -0.34700
C723        C  0.09632710  0.38797697  0.84343590     0.01500
C724        C  0.08150956  0.38305666  0.85242758     0.07500
C725        C  0.07798540  0.36631050  0.84678152    -0.05600
H726        H  0.10309454  0.40027061  0.84438119     0.08200
H727        H  0.06726157  0.35813816  0.85078286     0.09400
Cu728      Cu  0.12221595  0.37345412  0.81620509     0.44200
Cu729      Cu  0.09232268  0.33852340  0.82129218     0.42000
Cu730      Cu  0.13118605  0.33191928  0.79474989     0.43900
N731        N  0.14262196  0.36922426  0.79904025    -0.34200
N732        N  0.14627165  0.35416746  0.79156176    -0.28500
C733        C  0.16036623  0.35618347  0.78133609    -0.04600
C734        C  0.16567801  0.37334401  0.78235664     0.07700
C735        C  0.15413029  0.38119625  0.79365564     0.01500
H736        H  0.16603526  0.34602488  0.77342332     0.09100
H737        H  0.15406038  0.39465991  0.79769195     0.08200
N738        N  0.11133429  0.31367051  0.79719013    -0.35700
N739        N  0.09709743  0.31638832  0.80645776    -0.27800
C740        C  0.08633032  0.30277257  0.80443998    -0.03100
C741        C  0.09416287  0.29081090  0.79352903     0.05500
C742        C  0.11003183  0.29811752  0.78918776     0.03600
H743        H  0.07362523  0.30174535  0.81038519     0.08700
H744        H  0.11964593  0.29282249  0.78040030     0.07600
N745        N  0.09366269  0.10031677  0.66829492    -0.26800
N746        N  0.10555321  0.08793632  0.66823248    -0.34700
C747        C  0.10032853  0.07512039  0.65744471     0.01500
C748        C  0.08439680  0.07962784  0.65015754     0.07500
C749        C  0.08070177  0.09578824  0.65738398    -0.05600
H750        H  0.10757164  0.06329743  0.65518147     0.08200
H751        H  0.06932756  0.10367469  0.65498001     0.09400
Cu752      Cu  0.12843306  0.08940399  0.68290950     0.44200
Cu753      Cu  0.09546373  0.12250660  0.68393031     0.42000
Cu754      Cu  0.13550571  0.12902609  0.70826592     0.43900
N755        N  0.15056331  0.09431576  0.69799923    -0.34200
N756        N  0.15325283  0.10879865  0.70690618    -0.28500
C757        C  0.16860381  0.10768281  0.71527416    -0.04600
C758        C  0.17592240  0.09171417  0.71153517     0.07700
C759        C  0.16412923  0.08359177  0.70056552     0.01500
H760        H  0.17382334  0.11760734  0.72379599     0.09100
H761        H  0.16523958  0.07074901  0.69496556     0.08200
N762        N  0.11405566  0.14518472  0.71045655    -0.35700
N763        N  0.09936529  0.14258827  0.70187886    -0.27800
C764        C  0.08770547  0.15455762  0.70701817    -0.03100
C765        C  0.09544268  0.16526518  0.71929310     0.05500
C766        C  0.11217519  0.15896924  0.72112179     0.03600
H767        H  0.07449019  0.15531023  0.70225919     0.08700
H768        H  0.12208115  0.16370023  0.72992516     0.07600
N769        N  0.32509637  0.09872250  0.80252129    -0.26800
N770        N  0.32196839  0.11365824  0.79461231    -0.34700
C771        C  0.30771416  0.11189633  0.78453586     0.01500
C772        C  0.30172577  0.09500066  0.78606783     0.07500
C773        C  0.31307536  0.08705217  0.79753331    -0.05600
H774        H  0.30244539  0.12199854  0.77630720     0.08200
H775        H  0.31268521  0.07370214  0.80189975     0.09400
Cu776      Cu  0.33802470  0.13530548  0.79699531     0.44200
Cu777      Cu  0.34562126  0.09441055  0.81965839     0.42000
Cu778      Cu  0.37675742  0.12883425  0.82351046     0.43900
N779        N  0.35807321  0.15334840  0.79913641    -0.34200
N780        N  0.37225824  0.15075442  0.80851025    -0.28500
C781        C  0.38296310  0.16443014  0.80660287    -0.04600
C782        C  0.37513029  0.17626321  0.79558952     0.07700
C783        C  0.35936150  0.16883784  0.79109898     0.01500
H784        H  0.39555658  0.16561350  0.81275814     0.09100
H785        H  0.34968823  0.17411875  0.78236805     0.08200
N786        N  0.37824284  0.10608727  0.83785278    -0.35700
N787        N  0.36683792  0.09331820  0.83644306    -0.27800
C788        C  0.37150854  0.08035577  0.84722803    -0.03100
C789        C  0.38659556  0.08521090  0.85585792     0.05500
C790        C  0.39042075  0.10164756  0.84958288     0.03600
H791        H  0.36456410  0.06819692  0.84852503     0.08700
H792        H  0.40133017  0.10976542  0.85319920     0.07600
N793        N  0.31727126  0.37062530  0.69828857    -0.26800
N794        N  0.31447720  0.35658156  0.70778580    -0.34700
C795        C  0.29934541  0.35848164  0.71641557     0.01500
C796        C  0.29243870  0.37453525  0.71218178     0.07500
C797        C  0.30415113  0.38185251  0.70070705    -0.05600
H798        H  0.29400248  0.34906776  0.72539267     0.08200
H799        H  0.30327457  0.39446858  0.69458921     0.09400
Cu800      Cu  0.33199597  0.33607028  0.70913356     0.44200
Cu801      Cu  0.33880041  0.37449763  0.68261856     0.42000
Cu802      Cu  0.37278535  0.34320768  0.68529127     0.43900
N803        N  0.35330341  0.31950448  0.71021303    -0.34200
N804        N  0.36807122  0.32235033  0.70184687    -0.28500
C805        C  0.37953087  0.30993760  0.70621615    -0.04600
C806        C  0.37162576  0.29868033  0.71778340     0.07700
C807        C  0.35498402  0.30508991  0.72000686     0.01500
H808        H  0.39276966  0.30934517  0.70152453     0.09100
H809        H  0.34505160  0.30005919  0.72860546     0.08200
N810        N  0.37433156  0.36513690  0.66956166    -0.35700
N811        N  0.36162943  0.37662077  0.66855061    -0.27800
C812        C  0.36617605  0.38922999  0.65734238    -0.03100
C813        C  0.38260481  0.38558016  0.65097162     0.05500
C814        C  0.38737195  0.37017272  0.65902395     0.03600
H815        H  0.35806737  0.40021057  0.65401121     0.08700
H816        H  0.39942991  0.36314841  0.65734643     0.07600
N817        N  0.38660287  0.21768335  0.77549629    -0.26800
N818        N  0.40148892  0.21342995  0.78300772    -0.34700
C819        C  0.39947635  0.19836989  0.79158743     0.01500
C820        C  0.38257422  0.19274899  0.78934220     0.07500
C821        C  0.37474943  0.20528083  0.77906747    -0.05600
H822        H  0.40976692  0.19174107  0.79849582     0.08200
H823        H  0.36151346  0.20526594  0.77431313     0.09400
Cu824      Cu  0.42464079  0.22693759  0.78041257     0.44200
Cu825      Cu  0.38325175  0.23976074  0.76008604     0.42000
Cu826      Cu  0.42429937  0.25948292  0.74783963     0.43900
N827        N  0.44706361  0.23920688  0.77198178    -0.34200
N828        N  0.44688456  0.25106179  0.75958673    -0.28500
C829        C  0.46327272  0.25598846  0.75610090    -0.04600
C830        C  0.47431982  0.24677457  0.76685252     0.07700
C831        C  0.46361716  0.23625764  0.77678827     0.01500
H832        H  0.46686080  0.26536338  0.74625798     0.09100
H833        H  0.46756917  0.22678312  0.78638566     0.08200
N834        N  0.40040335  0.26818477  0.73934474    -0.35700
N835        N  0.38525487  0.26156476  0.74406650    -0.27800
C836        C  0.37246336  0.27120588  0.73693786    -0.03100
C837        C  0.38006148  0.28431764  0.72717165     0.05500
C838        C  0.39773498  0.28194201  0.72899372     0.03600
H839        H  0.35871873  0.26888043  0.73876022     0.08700
H840        H  0.40797612  0.28995586  0.72363357     0.07600
N841        N  0.21710962  0.08033390  0.73261589    -0.26800
N842        N  0.21237920  0.06524705  0.72581282    -0.34700
C843        C  0.19735753  0.06718967  0.71714595     0.01500
C844        C  0.19216004  0.08427416  0.71853827     0.07500
C845        C  0.20495532  0.09229634  0.72847942    -0.05600
H846        H  0.19050191  0.05674469  0.71066465     0.08200
H847        H  0.20536100  0.10576437  0.73245521     0.09400
Cu848      Cu  0.22525366  0.04196491  0.72921389     0.44200
Cu849      Cu  0.23991704  0.08352444  0.74735822     0.42000
Cu850      Cu  0.26108484  0.04214609  0.75783918     0.43900
N851        N  0.23675668  0.01934554  0.73788178    -0.34200
N852        N  0.24996964  0.01937988  0.74883534    -0.28500
C853        C  0.25399481  0.00289262  0.75294550    -0.04600
C854        C  0.24275033  0.99197867  0.74409972     0.07700
C855        C  0.23200276  0.00284365  0.73463219     0.01500
H856        H  0.26420232  0.99915777  0.76192275     0.09100
H857        H  0.22124576  0.99909931  0.72641699     0.08200
N858        N  0.27043919  0.06623200  0.76529269    -0.35700
N859        N  0.26323683  0.08136464  0.76144832    -0.27800
C860        C  0.27327200  0.09414769  0.76815090    -0.03100
C861        C  0.28723997  0.08657603  0.77670706     0.05500
C862        C  0.28495555  0.06892368  0.77460451     0.03600
H863        H  0.27052650  0.10787978  0.76703164     0.08700
H864        H  0.29335752  0.05869987  0.77933035     0.07600
N865        N  0.08215906  0.20319942  0.74488373    -0.26800
N866        N  0.06695997  0.19711480  0.73956118    -0.34700
C867        C  0.06948241  0.18284446  0.72983057     0.01500
C868        C  0.08708833  0.17957686  0.72896773     0.07500
C869        C  0.09479681  0.19268515  0.73872965    -0.05600
H870        H  0.05917375  0.17538102  0.72382694     0.08200
H871        H  0.10856048  0.19462122  0.74091071     0.09400
Cu872      Cu  0.04305852  0.20799505  0.74523264     0.44200
Cu873      Cu  0.08461027  0.22600563  0.75971776     0.42000
Cu874      Cu  0.04265790  0.24411097  0.77361938     0.43900
N875        N  0.02038733  0.22071760  0.75197403    -0.34200
N876        N  0.02018947  0.23404197  0.76279477    -0.28500
C877        C  0.00376934  0.23978488  0.76446755    -0.04600
C878        C  0.99315404  0.22956875  0.75411836     0.07700
C879        C  0.00411523  0.21760212  0.74638731     0.01500
H880        H  0.99992911  0.25078536  0.77234426     0.09100
H881        H  0.00058139  0.20747274  0.73727926     0.08200
N882        N  0.06652320  0.25536756  0.77883157    -0.35700
N883        N  0.08175650  0.24940958  0.77349492    -0.27800
C884        C  0.09416555  0.26096640  0.77809334    -0.03100
C885        C  0.08629292  0.27463958  0.78684472     0.05500
C886        C  0.06882275  0.27058452  0.78706622     0.03600
H887        H  0.10785145  0.25959376  0.77516298     0.08700
H888        H  0.05839128  0.27843031  0.79228270     0.07600
N889        N  0.25111400  0.38760721  0.73153028    -0.26800
N890        N  0.25688644  0.40261899  0.72544911    -0.34700
C891        C  0.27228148  0.40012837  0.71763371     0.01500
C892        C  0.27654020  0.38276029  0.71890098     0.07500
C893        C  0.26287775  0.37515932  0.72783649    -0.05600
H894        H  0.27993123  0.41032328  0.71169281     0.08200
H895        H  0.26153671  0.36161439  0.73131637     0.09400
Cu896      Cu  0.24444516  0.42626301  0.72833681     0.44200
Cu897      Cu  0.22749684  0.38493831  0.74458649     0.42000
Cu898      Cu  0.20692844  0.42636359  0.75518618     0.43900
N899        N  0.23160042  0.44884587  0.73517519    -0.34200
N900        N  0.21786605  0.44891214  0.74547012    -0.28500
C901        C  0.21292737  0.46542635  0.74830284    -0.04600
C902        C  0.22406997  0.47624530  0.73924773     0.07700
C903        C  0.23574137  0.46530813  0.73104696     0.01500
H904        H  0.20214500  0.46925012  0.75648005     0.09100
H905        H  0.24672812  0.46902809  0.72309509     0.08200
N906        N  0.19705959  0.40235016  0.76219513    -0.35700
N907        N  0.20410618  0.38720960  0.75811854    -0.27800
C908        C  0.19394975  0.37439510  0.76444950    -0.03100
C909        C  0.18002109  0.38192855  0.77303160     0.05500
C910        C  0.18244781  0.39961670  0.77132912     0.03600
H911        H  0.19665205  0.36067384  0.76314357     0.08700
H912        H  0.17412905  0.40982261  0.77625866     0.07600
N913        N  0.32174624  0.87421312  0.88014281    -0.26800
N914        N  0.32232907  0.86200293  0.89221366    -0.34700
C915        C  0.33367788  0.86690260  0.90467364     0.01500
C916        C  0.34050223  0.88300941  0.90027223     0.07500
C917        C  0.33260523  0.88720613  0.88462737    -0.05600
H918        H  0.33656892  0.85942550  0.91622374     0.08200
H919        H  0.33460092  0.89888220  0.87706237     0.09400
Cu920      Cu  0.30715743  0.83944596  0.89099401     0.44200
Cu921      Cu  0.30607028  0.87253437  0.85812768     0.42000
Cu922      Cu  0.28126084  0.83264668  0.85158059     0.43900
N923        N  0.29077219  0.81807584  0.88694387    -0.34200
N924        N  0.28165098  0.81535565  0.87258282    -0.28500
C925        C  0.27248299  0.80049428  0.87438834    -0.04600
C926        C  0.27587514  0.79359526  0.89069399     0.07700
C927        C  0.28749852  0.80512737  0.89825441     0.01500
H928        H  0.26362509  0.79535343  0.86472903     0.09100
H929        H  0.29309193  0.80425057  0.91113496     0.08200
N930        N  0.28109564  0.85353547  0.83417152    -0.35700
N931        N  0.28990658  0.86807335  0.83685287    -0.27800
C932        C  0.28645808  0.87928261  0.82389487    -0.03100
C933        C  0.27499332  0.87148389  0.81240311     0.05500
C934        C  0.27189836  0.85513415  0.81930181     0.03600
H935        H  0.29180688  0.89225366  0.82301261     0.08700
H936        H  0.26324025  0.84530509  0.81415547     0.07600
N937        N  0.28919489  0.65558116  0.63544401    -0.26800
N938        N  0.29787158  0.65284605  0.62085001    -0.34700
C939        C  0.29389545  0.66537838  0.60940028     0.01500
C940        C  0.28222136  0.67661585  0.61713480     0.07500
C941        C  0.27952642  0.67005794  0.63366876    -0.05600
H942        H  0.29880661  0.66596467  0.59623737     0.08200
H943        H  0.27062598  0.67497211  0.64339979     0.09400
Cu944      Cu  0.31384206  0.63170861  0.61622500     0.44200
Cu945      Cu  0.28951888  0.63841618  0.65625240     0.42000
Cu946      Cu  0.31095899  0.59695358  0.64668381     0.43900
N947        N  0.32716031  0.60857200  0.61304037    -0.34200
N948        N  0.32600221  0.59556908  0.62417635    -0.28500
C949        C  0.33562690  0.58221443  0.61824265    -0.04600
C950        C  0.34322979  0.58706289  0.60260464     0.07700
C951        C  0.33757038  0.60391037  0.59978103     0.01500
H952        H  0.33680234  0.56978835  0.62469719     0.09100
H953        H  0.34063259  0.61213495  0.58879676     0.08200
N954        N  0.29511935  0.60151162  0.66822085    -0.35700
N955        N  0.28779441  0.61659983  0.67201868    -0.27800
C956        C  0.27810670  0.61479379  0.68651172    -0.03100
C957        C  0.27925111  0.59772150  0.69197072     0.05500
C958        C  0.29010795  0.58970124  0.68007308     0.03600
H959        H  0.27013507  0.62492486  0.69211283     0.08700
H960        H  0.29381188  0.57614620  0.67981711     0.07600
N961        N  0.15613323  0.59780360  0.89715494    -0.26800
N962        N  0.15719302  0.58568877  0.88497703    -0.34700
C963        C  0.14740193  0.57194927  0.88969010     0.01500
C964        C  0.13975788  0.57546298  0.90563954     0.07500
C965        C  0.14563948  0.59199157  0.90996848    -0.05600
H966        H  0.14592607  0.56023718  0.88203444     0.08200
H967        H  0.14233434  0.59933206  0.92150886     0.09400
Cu968      Cu  0.17184694  0.58840317  0.86231113     0.44200
Cu969      Cu  0.16903732  0.62181898  0.89537519     0.42000
Cu970      Cu  0.19417763  0.62916199  0.85558257     0.43900
N971        N  0.18721536  0.59373991  0.84060480    -0.34200
N972        N  0.19534952  0.60866774  0.83807739    -0.28500
C973        C  0.20415203  0.60792031  0.82293744    -0.04600
C974        C  0.20141167  0.59173465  0.81557311     0.07700
C975        C  0.19062780  0.58310517  0.82714060     0.01500
H976        H  0.21200027  0.61836456  0.81773583     0.09100
H977        H  0.18561749  0.57002825  0.82589226     0.08200
N978        N  0.19255838  0.64696093  0.87579726    -0.35700
N979        N  0.18369209  0.64432418  0.89031545    -0.27800
C980        C  0.18627635  0.65799967  0.90097694    -0.03100
C981        C  0.19720467  0.66978282  0.89275579     0.05500
C982        C  0.20087162  0.66234258  0.87681039     0.03600
H983        H  0.18086571  0.65912327  0.91391343     0.08700
H984        H  0.20943177  0.66743781  0.86688096     0.07600
N985        N  0.22239998  0.58170725  0.77394783    -0.26800
N986        N  0.21436830  0.56689573  0.77741873    -0.34700
C987        C  0.20577187  0.56835498  0.79253901     0.01500
C988        C  0.20841282  0.58484864  0.79906712     0.07500
C989        C  0.21904459  0.59301949  0.78696729    -0.05600
H990        H  0.19828242  0.55801534  0.79842689     0.08200
H991        H  0.22401970  0.60615278  0.78761305     0.09400
Cu992      Cu  0.21554782  0.54464409  0.76240154     0.44200
Cu993      Cu  0.23770519  0.58537977  0.75162055     0.42000
Cu994      Cu  0.24471449  0.54498548  0.72711133     0.43900
N995        N  0.22141448  0.52248181  0.74842330    -0.34200
N996        N  0.23261345  0.52253739  0.73542737    -0.28500
C997        C  0.23484761  0.50617812  0.72971217    -0.04600
C998        C  0.22446999  0.49533063  0.73960837     0.07700
C999        C  0.21608565  0.50610146  0.75131618     0.01500
H1000       H  0.24366980  0.50244213  0.71941403     0.09100
H1001       H  0.20733976  0.50226188  0.76164000     0.08200
N1002       N  0.25516252  0.56877077  0.72040953    -0.35700
N1003       N  0.25250842  0.58360125  0.72873134    -0.27800
C1004       C  0.26080284  0.59638968  0.72001951    -0.03100
C1005       C  0.26916785  0.58909539  0.70578055     0.05500
C1006       C  0.26529679  0.57162530  0.70650518     0.03600
H1007       H  0.26080069  0.60993744  0.72379001     0.08700
H1008       H  0.26921275  0.56169612  0.69734392     0.07600
N1009       N  0.22055400  0.70976890  0.90436551    -0.26800
N1010       N  0.21427992  0.70483464  0.91960438    -0.34700
C1011       C  0.20464685  0.69041287  0.91758747     0.01500
C1012       C  0.20485271  0.68575731  0.90026505     0.07500
C1013       C  0.21509783  0.69829842  0.89219749    -0.05600
H1014       H  0.19848816  0.68345615  0.92814345     0.08200
H1015       H  0.21851650  0.69888898  0.87856467     0.09400
Cu1016     Cu  0.22005951  0.71643987  0.94307541     0.44200
Cu1017     Cu  0.23669606  0.73178993  0.90156505     0.42000
Cu1018     Cu  0.25312761  0.74871408  0.94322834     0.43900
N1019       N  0.23022915  0.72654704  0.96573635    -0.34200
N1020       N  0.24275236  0.73829289  0.96592582    -0.28500
C1021       C  0.24664722  0.74214017  0.98256294    -0.04600
C1022       C  0.23601116  0.73231457  0.99328419     0.07700
C1023       C  0.22578181  0.72257517  0.98216552     0.01500
H1024       H  0.25632456  0.75155066  0.98653413     0.09100
H1025       H  0.21581352  0.71331166  0.98571011     0.08200
N1026       N  0.25867741  0.75968429  0.91912862    -0.35700
N1027       N  0.25252056  0.75409078  0.90402968    -0.27800
C1028       C  0.25786490  0.76511919  0.89142892    -0.03100
C1029       C  0.26793497  0.77810737  0.89897869     0.05500
C1030       C  0.26815468  0.77414606  0.91651290     0.03600
H1031       H  0.25455914  0.76386411  0.87780923     0.08700
H1032       H  0.27431649  0.78155986  0.92677136     0.07600
N1033       N  0.14940929  0.86068304  0.60934914    -0.26800
N1034       N  0.14882642  0.87240697  0.62191325    -0.34700
C1035       C  0.13723538  0.88476425  0.61756654     0.01500
C1036       C  0.13017925  0.88072310  0.60143663     0.07500
C1037       C  0.13828448  0.86533887  0.59664732    -0.05600
H1038       H  0.13410835  0.89586895  0.62561155     0.08200
H1039       H  0.13625126  0.85803933  0.58478621     0.09400
Cu1040     Cu  0.16398136  0.87101753  0.64439173     0.44200
Cu1041     Cu  0.16515566  0.83872037  0.61037810     0.42000
Cu1042     Cu  0.19016620  0.83244526  0.65030460     0.43900
N1043       N  0.18057805  0.86711812  0.66551254    -0.34200
N1044       N  0.18987776  0.85287181  0.66787163    -0.28500
C1045       C  0.19935694  0.85454793  0.68252218    -0.04600
C1046       C  0.19597054  0.87069828  0.68964704     0.07700
C1047       C  0.18404772  0.87831023  0.67850997     0.01500
H1048       H  0.20849011  0.84498063  0.68726277     0.09100
H1049       H  0.17846189  0.89115618  0.67963856     0.08200
N1050       N  0.19010301  0.81514512  0.62964305    -0.35700
N1051       N  0.18121459  0.81747926  0.61509495    -0.27800
C1052       C  0.18450360  0.80416458  0.60423860    -0.03100
C1053       C  0.19595821  0.79293573  0.61236523     0.05500
C1054       C  0.19922771  0.80029348  0.62843695     0.03600
H1055       H  0.17905833  0.80285465  0.59132936     0.08700
H1056       H  0.20784442  0.79540549  0.63842130     0.07600
N1057       N  0.22047182  0.88397760  0.72829285    -0.26800
N1058       N  0.21535186  0.89915326  0.72205649    -0.34700
C1059       C  0.20557637  0.89658786  0.70781602     0.01500
C1060       C  0.20454011  0.87897343  0.70468883     0.07500
C1061       C  0.21417928  0.87130148  0.71787918    -0.05600
H1062       H  0.20009802  0.90688774  0.69998240     0.08200
H1063       H  0.21649347  0.85756491  0.71972470     0.09400
Cu1064     Cu  0.22260782  0.92308766  0.73181504     0.44200
Cu1065     Cu  0.23601374  0.88166249  0.75063077     0.42000
Cu1066     Cu  0.25328280  0.92323740  0.76632325     0.43900
N1067       N  0.23381181  0.94564578  0.74111221    -0.34200
N1068       N  0.24542631  0.94573865  0.75376487    -0.28500
C1069       C  0.25053286  0.96220789  0.75671527    -0.04600
C1070       C  0.24163860  0.97294559  0.74534702     0.07700
C1071       C  0.23114575  0.96201235  0.73566937     0.01500
H1072       H  0.25988226  0.96605640  0.76647169     0.09100
H1073       H  0.22225240  0.96565226  0.72534512     0.08200
N1074       N  0.25800474  0.89947782  0.77815546    -0.35700
N1075       N  0.25163326  0.88437792  0.77288206    -0.27800
C1076       C  0.25679688  0.87193439  0.78412750    -0.03100
C1077       C  0.26696213  0.87960577  0.79693940     0.05500
C1078       C  0.26743244  0.89703547  0.79266849     0.03600
H1079       H  0.25336434  0.85834253  0.78308861     0.08700
H1080       H  0.27386447  0.90732309  0.79979965     0.07600
N1081       N  0.22022672  0.75380156  0.60118983    -0.26800
N1082       N  0.21271788  0.75740446  0.58613942    -0.34700
C1083       C  0.20260384  0.77149524  0.58799115     0.01500
C1084       C  0.20382756  0.77714828  0.60498986     0.07500
C1085       C  0.21510661  0.76565161  0.61302780    -0.05600
H1086       H  0.19535471  0.77749585  0.57754302     0.08200
H1087       H  0.21951483  0.76604000  0.62638307     0.09400
Cu1088     Cu  0.21743593  0.74433046  0.56315887     0.44200
Cu1089     Cu  0.23766504  0.73337494  0.60461452     0.42000
Cu1090     Cu  0.25362436  0.71566092  0.56363968     0.43900
N1091       N  0.22734174  0.73302006  0.54091720    -0.34200
N1092       N  0.24100576  0.72265686  0.54102862    -0.28500
C1093       C  0.24466239  0.71781541  0.52462845    -0.04600
C1094       C  0.23269175  0.72556797  0.51370714     0.07700
C1095       C  0.22189786  0.73510836  0.52445165     0.01500
H1096       H  0.25527005  0.70935190  0.52096545     0.09100
H1097       H  0.21104804  0.74316603  0.52060827     0.08200
N1098       N  0.26132482  0.70703119  0.58784119    -0.35700
N1099       N  0.25528009  0.71289283  0.60284274    -0.27800
C1100       C  0.26208602  0.70326474  0.61580717    -0.03100
C1101       C  0.27299460  0.69093608  0.60850464     0.05500
C1102       C  0.27219716  0.69375458  0.59080586     0.03600
H1103       H  0.25913840  0.70496498  0.62944985     0.08700
H1104       H  0.27851774  0.68627177  0.58070537     0.07600
N1105       N  0.31711162  0.79140676  0.11782567    -0.26800
N1106       N  0.31370283  0.78360780  0.13278208    -0.34700
C1107       C  0.29851074  0.77494501  0.13134454     0.01500
C1108       C  0.29214496  0.77730858  0.11466391     0.07500
C1109       C  0.30428455  0.78778653  0.10649350    -0.05600
H1110       H  0.29285090  0.76701908  0.14149031     0.08200
H1111       H  0.30395762  0.79227872  0.09317068     0.09400
Cu1112     Cu  0.33059633  0.78402376  0.15400512     0.44200
Cu1113     Cu  0.33923226  0.80633630  0.11288627     0.42000
Cu1114     Cu  0.37080705  0.80850951  0.14698537     0.43900
N1115       N  0.35148889  0.78400454  0.17131509    -0.34200
N1116       N  0.36609029  0.79268898  0.16855181    -0.28500
C1117       C  0.37738965  0.78900045  0.18138610    -0.04600
C1118       C  0.36958060  0.77752807  0.19285028     0.07700
C1119       C  0.35312706  0.77468060  0.18608170     0.01500
H1120       H  0.39050746  0.79402820  0.18209916     0.09100
H1121       H  0.34332485  0.76594618  0.19112178     0.08200
N1122       N  0.37347116  0.82213161  0.12364674    -0.35700
N1123       N  0.36189024  0.82115220  0.11098342    -0.27800
C1124       C  0.36719959  0.83117046  0.09763362    -0.03100
C1125       C  0.38289143  0.83896014  0.10206280     0.05500
C1126       C  0.38641592  0.83286820  0.11870226     0.03600
H1127       H  0.36012033  0.83270957  0.08557243     0.08700
H1128       H  0.39753884  0.83610353  0.12669224     0.07600
N1129       N  0.10527848  0.64661503  0.11222812    -0.26800
N1130       N  0.09358976  0.64507105  0.12471928    -0.34700
C1131       C  0.08110259  0.63395632  0.11946497     0.01500
C1132       C  0.08503541  0.62823238  0.10278342     0.07500
C1133       C  0.10049173  0.63659987  0.09866742    -0.05600
H1134       H  0.06994677  0.63033016  0.12722052     0.08200
H1135       H  0.10767255  0.63560701  0.08661282     0.09400
Cu1136     Cu  0.09527398  0.65865065  0.14812325     0.44200
Cu1137     Cu  0.12708821  0.66254352  0.11436821     0.42000
Cu1138     Cu  0.13424589  0.68536715  0.15514463     0.43900
N1139       N  0.09938588  0.67443126  0.16978758    -0.34200
N1140       N  0.11362350  0.68370363  0.17257020    -0.28500
C1141       C  0.11170017  0.69281741  0.18741004    -0.04600
C1142       C  0.09542568  0.68927420  0.19417638     0.07700
C1143       C  0.08798561  0.67759072  0.18267280     0.01500
H1144       H  0.12109636  0.70203732  0.19239479     0.09100
H1145       H  0.07504602  0.67212419  0.18335530     0.08200
N1146       N  0.15035061  0.68804122  0.13355830    -0.35700
N1147       N  0.14750959  0.67981900  0.11870469    -0.27800
C1148       C  0.15952395  0.68483793  0.10705066    -0.03100
C1149       C  0.17050798  0.69677065  0.11487509     0.05500
C1150       C  0.16432762  0.69848443  0.13171774     0.03600
H1151       H  0.16007074  0.68026118  0.09375359     0.08700
H1152       H  0.16934348  0.70698123  0.14175654     0.07600
N1153       N  0.25277552  0.75376760  0.10163020    -0.26800
N1154       N  0.25953468  0.75794369  0.08637354    -0.34700
C1155       C  0.27407832  0.76727681  0.08882441     0.01500
C1156       C  0.27686842  0.76902502  0.10646982     0.07500
C1157       C  0.26312750  0.76026985  0.11426837    -0.05600
H1158       H  0.28233188  0.77196174  0.07844389     0.08200
H1159       H  0.26092545  0.75860576  0.12806014     0.09400
Cu1160     Cu  0.24995769  0.75002823  0.06255804     0.44200
Cu1161     Cu  0.23000183  0.73887806  0.10397899     0.42000
Cu1162     Cu  0.21465754  0.72049773  0.06233701     0.43900
N1163       N  0.24021926  0.73941100  0.03989970    -0.34200
N1164       N  0.22715425  0.72827761  0.03970437    -0.28500
C1165       C  0.22374752  0.72380875  0.02311284    -0.04600
C1166       C  0.23526192  0.73262069  0.01241673     0.07700
C1167       C  0.24551680  0.74236783  0.02351009     0.01500
H1168       H  0.21352289  0.71499450  0.01914285     0.09100
H1169       H  0.25597764  0.75106995  0.01996266     0.08200
N1170       N  0.20311571  0.71590172  0.08632218    -0.35700
N1171       N  0.20820534  0.72262499  0.10135570    -0.27800
C1172       C  0.19735621  0.71697932  0.11396061    -0.03100
C1173       C  0.18502027  0.70613359  0.10646345     0.05500
C1174       C  0.18911734  0.70579934  0.08897555     0.03600
H1175       H  0.19847068  0.72037644  0.12757385     0.08700
H1176       H  0.18234385  0.69879898  0.07881525     0.07600
N1177       N  0.36797748  0.67889128  0.33722728    -0.26800
N1178       N  0.35325545  0.68749501  0.33504173    -0.34700
C1179       C  0.35464323  0.69763390  0.32080191     0.01500
C1180       C  0.37104804  0.69535116  0.31375670     0.07500
C1181       C  0.37911205  0.68340515  0.32452714    -0.05600
H1182       H  0.34458986  0.70628318  0.31615340     0.08200
H1183       H  0.39218809  0.67839964  0.32329529     0.09400
Cu1184     Cu  0.33232698  0.68559779  0.35211739     0.44200
Cu1185     Cu  0.37270644  0.66150648  0.35748923     0.42000
Cu1186     Cu  0.33912540  0.65723973  0.38970732     0.43900
N1187       N  0.31488500  0.68345577  0.37272242    -0.34200
N1188       N  0.31754951  0.67350383  0.38650257    -0.28500
C1189       C  0.30447672  0.67601338  0.39787527    -0.04600
C1190       C  0.29295224  0.68795419  0.39088557     0.07700
C1191       C  0.29995288  0.69235818  0.37490655     0.01500
H1192       H  0.30353012  0.66973003  0.41042293     0.09100
H1193       H  0.29490568  0.70179988  0.36580438     0.08200
N1194       N  0.36234446  0.64309838  0.39055058    -0.35700
N1195       N  0.37477673  0.64488477  0.37880541    -0.27800
C1196       C  0.38830117  0.63466735  0.38320625    -0.03100
C1197       C  0.38418541  0.62591396  0.39840677     0.05500
C1198       C  0.36760481  0.63157239  0.40265999     0.03600
H1199       H  0.40031018  0.63375684  0.37594663     0.08700
H1200       H  0.36009153  0.62786986  0.41395864     0.07600
N1201       N  0.14662191  0.77139430  0.37652084    -0.26800
N1202       N  0.14342388  0.77887384  0.39169449    -0.34700
C1203       C  0.15587603  0.77409409  0.40302619     0.01500
C1204       C  0.16749435  0.76321355  0.39455793     0.07500
C1205       C  0.16122052  0.76181847  0.37776745    -0.05600
H1206       H  0.15641653  0.77823443  0.41646508     0.08200
H1207       H  0.16662688  0.75410729  0.36731343     0.09400
Cu1208     Cu  0.12223662  0.79531829  0.39645308     0.44200
Cu1209     Cu  0.13054505  0.77367560  0.35501803     0.42000
Cu1210     Cu  0.09184501  0.79996883  0.36115025     0.43900
N1211       N  0.10071121  0.81196098  0.39741582    -0.34200
N1212       N  0.08967717  0.81368528  0.38434462    -0.28500
C1213       C  0.07739168  0.82534511  0.38872296    -0.04600
C1214       C  0.08073231  0.83129897  0.40542346     0.07700
C1215       C  0.09566092  0.82249697  0.41049482     0.01500
H1216       H  0.06680633  0.82923469  0.38032370     0.09100
H1217       H  0.10232449  0.82362923  0.42283979     0.08200
N1218       N  0.09648603  0.78475460  0.33929523    -0.35700
N1219       N  0.11068029  0.77537459  0.33690273    -0.27800
C1220       C  0.10940460  0.76683776  0.32165852    -0.03100
C1221       C  0.09361873  0.77100954  0.31415499     0.05500
C1222       C  0.08577288  0.78236839  0.32568866     0.03600
H1223       H  0.11903412  0.75788665  0.31668278     0.08700
H1224       H  0.07308652  0.78828484  0.32443663     0.07600
N1225       N  0.25313520  0.71005448  0.40503615    -0.26800
N1226       N  0.25950354  0.70450197  0.42004114    -0.34700
C1227       C  0.27421530  0.69556002  0.41714246     0.01500
C1228       C  0.27753811  0.69553072  0.39950498     0.07500
C1229       C  0.26394677  0.70489127  0.39218112    -0.05600
H1230       H  0.28218371  0.68990634  0.42725369     0.08200
H1231       H  0.26207421  0.70774360  0.37852974     0.09400
Cu1232     Cu  0.24915065  0.70984951  0.44431321     0.44200
Cu1233     Cu  0.22998532  0.72458290  0.40300384     0.42000
Cu1234     Cu  0.21237563  0.73747298  0.44501138     0.43900
N1235       N  0.23808036  0.71864947  0.46720388    -0.34200
N1236       N  0.22440744  0.72899212  0.46735137    -0.28500
C1237       C  0.22025740  0.73283320  0.48387277    -0.04600
C1238       C  0.23194180  0.72451373  0.49466015     0.07700
C1239       C  0.24308614  0.71562257  0.48368880     0.01500
H1240       H  0.20962240  0.74119250  0.48769320     0.09100
H1241       H  0.25409785  0.70770768  0.48736731     0.08200
N1242       N  0.20113108  0.74393484  0.42159779    -0.35700
N1243       N  0.20700406  0.73917396  0.40613805    -0.27800
C1244       C  0.19595710  0.74529876  0.39392382    -0.03100
C1245       C  0.18272267  0.75440071  0.40222295     0.05500
C1246       C  0.18650407  0.75323120  0.41970619     0.03600
H1247       H  0.19746907  0.74334858  0.38007369     0.08700
H1248       H  0.17902898  0.75853052  0.43038037     0.07600
N1249       N  0.08132264  0.74825300  0.27430193    -0.26800
N1250       N  0.06648849  0.75578528  0.27862248    -0.34700
C1251       C  0.06883489  0.76537183  0.29302013     0.01500
C1252       C  0.08593127  0.76378308  0.29817702     0.07500
C1253       C  0.09352661  0.75281955  0.28604685    -0.05600
H1254       H  0.05862339  0.77244891  0.29960006     0.08200
H1255       H  0.10682432  0.74826814  0.28592427     0.09400
Cu1256     Cu  0.04301087  0.75169262  0.26634259     0.44200
Cu1257     Cu  0.08384862  0.73159149  0.25298830     0.42000
Cu1258     Cu  0.04241918  0.71823616  0.23428360     0.43900
N1259       N  0.02027988  0.74168095  0.25624745    -0.34200
N1260       N  0.02006178  0.72912817  0.24452702    -0.28500
C1261       C  0.00348571  0.72481727  0.24109411    -0.04600
C1262       C  0.99279082  0.73514741  0.25120351     0.07700
C1263       C  0.00385648  0.74570976  0.26065271     0.01500
H1264       H  0.99955588  0.71474573  0.23208554     0.09100
H1265       H  0.00029316  0.75534831  0.27025935     0.08200
N1266       N  0.06634606  0.71000263  0.22514224    -0.35700
N1267       N  0.08149588  0.71507872  0.23153355    -0.27800
C1268       C  0.09429578  0.70812492  0.22179074    -0.03100
C1269       C  0.08677983  0.69808869  0.20882579     0.05500
C1270       C  0.06907662  0.69956377  0.21139438     0.03600
H1271       H  0.10802094  0.71035911  0.22387578     0.08700
H1272       H  0.05887104  0.69397143  0.20347445     0.07600
N1273       N  0.38313022  0.75243366  0.23106613    -0.26800
N1274       N  0.39830429  0.75778527  0.22493473    -0.34700
C1275       C  0.39563515  0.76779313  0.21087277     0.01500
C1276       C  0.37797880  0.76875130  0.20775115     0.07500
C1277       C  0.37040232  0.75881588  0.22078068    -0.05600
H1278       H  0.40589993  0.77353013  0.20316035     0.08200
H1279       H  0.35667810  0.75634698  0.22259862     0.09400
Cu1280     Cu  0.42246586  0.75067251  0.23465647     0.44200
Cu1281     Cu  0.38066050  0.73644651  0.25311076     0.42000
Cu1282     Cu  0.42208477  0.71930091  0.26836428     0.43900
N1283       N  0.44506680  0.73986634  0.24468650    -0.34200
N1284       N  0.44481488  0.72802308  0.25709538    -0.28500
C1285       C  0.46120276  0.72331327  0.26090048    -0.04600
C1286       C  0.47234081  0.73266298  0.25035217     0.07700
C1287       C  0.46168145  0.74304562  0.24021991     0.01500
H1288       H  0.46471435  0.71386994  0.27069522     0.09100
H1289       H  0.46567742  0.75220921  0.23033231     0.08200
N1290       N  0.39851020  0.71399822  0.28004364    -0.35700
N1291       N  0.38333108  0.72032853  0.27502853    -0.27800
C1292       C  0.37100551  0.71467401  0.28620299    -0.03100
C1293       C  0.37890282  0.70423941  0.29864921     0.05500
C1294       C  0.39629167  0.70414282  0.29426473     0.03600
H1295       H  0.35735002  0.71789395  0.28533335     0.08700
H1296       H  0.40670884  0.69763548  0.30109902     0.07600
C1297       C  0.89267732  0.89034862  0.36833430    -0.04900
C1298       C  0.89804945  0.88365566  0.38459448    -0.02000
C1299       C  0.90880314  0.89362811  0.39569425     0.03000
C1300       C  0.91432047  0.91042772  0.39068031    -0.04900
C1301       C  0.90901228  0.91709720  0.37439743    -0.02000
C1302       C  0.89824712  0.90712742  0.36329325     0.03000
C1303       C  0.89194880  0.86674433  0.39027379     0.37700
C1304       C  0.91512389  0.93401779  0.36876533     0.37600
C1305       C  0.89340477  0.91395823  0.34639266     0.36100
C1306       C  0.91362588  0.88681401  0.41261409     0.36100
N1307       N  0.88955169  0.91939979  0.33290474    -0.38800
N1308       N  0.91747134  0.88141044  0.42611944    -0.38800
N1309       N  0.92004185  0.94749037  0.36424461    -0.38200
N1310       N  0.88705974  0.85327512  0.39483721    -0.38200
C1311       C  0.87350670  0.04908158  0.43018141    -0.04900
C1312       C  0.85724886  0.05353371  0.43745855    -0.02000
C1313       C  0.84483411  0.06276089  0.42752330     0.03000
C1314       C  0.84863329  0.06789507  0.41025772    -0.04900
C1315       C  0.86486262  0.06320774  0.40292095    -0.02000
C1316       C  0.87720408  0.05388781  0.41283558     0.03000
C1317       C  0.85304270  0.04810410  0.45502548     0.37700
C1318       C  0.86918438  0.06834261  0.38528921     0.37600
C1319       C  0.89402782  0.04979033  0.40534336     0.36100
C1320       C  0.82779990  0.06618949  0.43483723     0.36100
N1321       N  0.90746210  0.04655739  0.39939993    -0.38800
N1322       N  0.81417248  0.06881545  0.44063854    -0.38800
N1323       N  0.87266071  0.07233440  0.37120142    -0.38200
N1324       N  0.84970368  0.04375611  0.46903826    -0.38200
C1325       C  0.92256233  0.96434342  0.42504251    -0.04900
C1326       C  0.90459008  0.96745884  0.42781636    -0.02000
C1327       C  0.89877558  0.98387563  0.43367401     0.03000
C1328       C  0.91077168  0.99738353  0.43697941    -0.04900
C1329       C  0.92863476  0.99445829  0.43400256    -0.02000
C1330       C  0.93450687  0.97811358  0.42798025     0.03000
C1331       C  0.89195917  0.95367005  0.42526043     0.37700
C1332       C  0.94096929  0.00851116  0.43656532     0.37600
C1333       C  0.95284757  0.97579645  0.42422269     0.36100
C1334       C  0.88039524  0.98667895  0.43688491     0.36100
N1335       N  0.96747637  0.97397156  0.42122649    -0.38800
N1336       N  0.86574871  0.98894557  0.43944896    -0.38800
N1337       N  0.95078793  0.01973950  0.43856564    -0.38200
N1338       N  0.88183711  0.94272590  0.42318163    -0.38200
C1339       C  0.91659588  0.09446189  0.56492453    -0.04900
C1340       C  0.92315807  0.11135942  0.56776716    -0.02000
C1341       C  0.91300658  0.12393891  0.57653575     0.03000
C1342       C  0.89612146  0.11977233  0.58258156    -0.04900
C1343       C  0.88945614  0.10289497  0.57944310    -0.02000
C1344       C  0.89966132  0.09031329  0.57071017     0.03000
C1345       C  0.94017846  0.11598155  0.56107922     0.37700
C1346       C  0.87228373  0.09822318  0.58566768     0.37600
C1347       C  0.89292882  0.07287802  0.56815283     0.36100
C1348       C  0.91973694  0.14141462  0.57868352     0.36100
N1349       N  0.88760358  0.05894920  0.56615318    -0.38800
N1350       N  0.92512250  0.15536594  0.58031396    -0.38800
N1351       N  0.85857184  0.09447494  0.59059737    -0.38200
N1352       N  0.95373258  0.11959352  0.55564129    -0.38200
C1353       C  0.92499827  0.05632939  0.51408484    -0.04900
C1354       C  0.91941342  0.03891048  0.51275276    -0.02000
C1355       C  0.91271092  0.03243949  0.49686974     0.03000
C1356       C  0.91147519  0.04336439  0.48208494    -0.04900
C1357       C  0.91688177  0.06091497  0.48355504    -0.02000
C1358       C  0.92363901  0.06731529  0.49944896     0.03000
C1359       C  0.91991529  0.02782168  0.52799344     0.37700
C1360       C  0.91590645  0.07237718  0.46861732     0.37600
C1361       C  0.92955440  0.08518024  0.50066033     0.36100
C1362       C  0.90635537  0.01470395  0.49604472     0.36100
N1363       N  0.93431908  0.09941490  0.50163214    -0.38800
N1364       N  0.90124725  0.00056909  0.49540012    -0.38800
N1365       N  0.91505820  0.08153556  0.45671697    -0.38200
N1366       N  0.92024763  0.01905835  0.54021118    -0.38200
C1367       C  0.07040354  0.84420424  0.41575257    -0.04900
C1368       C  0.05217518  0.84238618  0.41745612    -0.02000
C1369       C  0.04250115  0.85429602  0.42759764     0.03000
C1370       C  0.05082672  0.86845001  0.43599777    -0.04900
C1371       C  0.06906021  0.87034735  0.43412553    -0.02000
C1372       C  0.07873520  0.85835893  0.42404617     0.03000
C1373       C  0.04327863  0.82795677  0.40915553     0.37700
C1374       C  0.07799978  0.88492461  0.44206974     0.37600
C1375       C  0.09723129  0.86113245  0.42154983     0.36100
C1376       C  0.02398943  0.85144441  0.42993070     0.36100
N1377       N  0.11196392  0.86340352  0.41950859    -0.38800
N1378       N  0.00923786  0.84915649  0.43181411    -0.38800
N1379       N  0.08544427  0.89641067  0.44832025    -0.38200
N1380       N  0.03609261  0.81653079  0.40248921    -0.38200
C1381       C  0.99807499  0.90488045  0.44217099    -0.04900
C1382       C  0.98301625  0.90596626  0.45276673    -0.02000
C1383       C  0.96718214  0.91223507  0.44585057     0.03000
C1384       C  0.96608148  0.91721609  0.42824515    -0.04900
C1385       C  0.98092299  0.91596520  0.41756469    -0.02000
C1386       C  0.99686734  0.90999832  0.42448215     0.03000
C1387       C  0.98345951  0.90011356  0.47067369     0.37700
C1388       C  0.97988254  0.92131165  0.39949993     0.37600
C1389       C  0.01216726  0.90984760  0.41345189     0.36100
C1390       C  0.95183066  0.91320349  0.45677842     0.36100
N1391       N  0.02436450  0.90975942  0.40464361    -0.38800
N1392       N  0.93957003  0.91396853  0.46546287    -0.38800
N1393       N  0.97900523  0.92559002  0.38510045    -0.38200
N1394       N  0.98348575  0.89550343  0.48499085    -0.38200
C1395       C  0.09060740  0.91011156  0.57362038    -0.04900
C1396       C  0.10549590  0.91851666  0.58047628    -0.02000
C1397       C  0.11841049  0.90892123  0.58936433     0.03000
C1398       C  0.11669945  0.89074261  0.59156175    -0.04900
C1399       C  0.10200589  0.88225717  0.58439523    -0.02000
C1400       C  0.08904655  0.89185826  0.57554965     0.03000
C1401       C  0.10806523  0.93698271  0.57765715     0.37700
C1402       C  0.09990144  0.86362769  0.58642675     0.37600
C1403       C  0.07388040  0.88284979  0.56881712     0.36100
C1404       C  0.13393594  0.91774911  0.59546894     0.36100
N1405       N  0.06186112  0.87555011  0.56344260    -0.38800
N1406       N  0.14632869  0.92481788  0.60026980    -0.38800
N1407       N  0.09822231  0.84875893  0.58793006    -0.38200
N1408       N  0.11013049  0.95169866  0.57536241    -0.38200
C1409       C  0.05346768  0.91706203  0.52179666    -0.04900
C1410       C  0.03998592  0.90465892  0.52075748    -0.02000
C1411       C  0.03460533  0.89817075  0.50440276     0.03000
C1412       C  0.04230742  0.90444930  0.48894956    -0.04900
C1413       C  0.05572134  0.91694711  0.49002194    -0.02000
C1414       C  0.06150791  0.92296720  0.50640040     0.03000
C1415       C  0.03158738  0.89865941  0.53653685     0.37700
C1416       C  0.06325900  0.92400919  0.47426128     0.37600
C1417       C  0.07601645  0.93496870  0.50744510     0.36100
C1418       C  0.02150867  0.88464470  0.50352392     0.36100
N1419       N  0.08771231  0.94439924  0.50828704    -0.38800
N1420       N  0.01120743  0.87369382  0.50292675    -0.38800
N1421       N  0.06920633  0.92985812  0.46174358    -0.38200
N1422       N  0.02483941  0.89394435  0.54913072    -0.38200
C1423       C  0.07343059  0.06923729  0.63762778    -0.04900
C1424       C  0.08108306  0.06066361  0.62319789    -0.02000
C1425       C  0.07072622  0.05100056  0.61138644     0.03000
C1426       C  0.05250469  0.04973427  0.61370195    -0.04900
C1427       C  0.04483183  0.05828373  0.62807883    -0.02000
C1428       C  0.05518827  0.06782774  0.63999106     0.03000
C1429       C  0.09961195  0.06215808  0.62002117     0.37700
C1430       C  0.02626068  0.05679001  0.63104828     0.37600
C1431       C  0.04699584  0.07551972  0.65514478     0.36100
C1432       C  0.07885962  0.04288535  0.59640526     0.36100
N1433       N  0.04040129  0.08161785  0.66722243    -0.38800
N1434       N  0.08532649  0.03640836  0.58445662    -0.38800
N1435       N  0.01145032  0.05563471  0.63342771    -0.38200
N1436       N  0.11439115  0.06322480  0.61741162    -0.38200
C1437       C  0.00063039  0.04444788  0.57552797    -0.04900
C1438       C  0.00087243  0.05461398  0.56024455    -0.02000
C1439       C  0.98518012  0.06114874  0.55316085     0.03000
C1440       C  0.96906729  0.05737271  0.56116979    -0.04900
C1441       C  0.96887905  0.04735136  0.57657360    -0.02000
C1442       C  0.98458383  0.04098602  0.58374341     0.03000
C1443       C  0.01731256  0.05831435  0.55179970     0.37700
C1444       C  0.95244043  0.04320900  0.58481754     0.37600
C1445       C  0.98426054  0.03080466  0.59959970     0.36100
C1446       C  0.98565344  0.07222956  0.53792818     0.36100
N1447       N  0.98406132  0.02271341  0.61227649    -0.38800
N1448       N  0.98602061  0.08119102  0.52585552    -0.38800
N1449       N  0.93929092  0.03990028  0.59133345    -0.38200
N1450       N  0.03045523  0.06123545  0.54508699    -0.38200
C1451       C  0.04313422  0.99648279  0.57858701    -0.04900
C1452       C  0.04877636  0.99411574  0.56128901    -0.02000
C1453       C  0.05416922  0.97756012  0.55539385     0.03000
C1454       C  0.05413602  0.96308771  0.56679968    -0.04900
C1455       C  0.04861084  0.96555961  0.58422267    -0.02000
C1456       C  0.04317867  0.98216640  0.59006112     0.03000
C1457       C  0.04956253  0.00892835  0.54964928     0.37700
C1458       C  0.04776745  0.95088501  0.59601324     0.37600
C1459       C  0.03713989  0.98444243  0.60778746     0.36100
C1460       C  0.06017627  0.97567415  0.53761716     0.36100
N1461       N  0.03228019  0.98629028  0.62191333    -0.38800
N1462       N  0.06486111  0.97435916  0.52337810    -0.38800
N1463       N  0.04703851  0.93917621  0.60541891    -0.38200
N1464       N  0.05027744  0.02076728  0.54041099    -0.38200
C1465       C  0.91225468  0.37333106  0.93016295    -0.04900
C1466       C  0.92005223  0.35839418  0.92272991    -0.02000
C1467       C  0.91040594  0.34727529  0.91165337     0.03000
C1468       C  0.89281017  0.35090839  0.90776670    -0.04900
C1469       C  0.88496853  0.36576905  0.91526500    -0.02000
C1470       C  0.89461096  0.37689473  0.92634603     0.03000
C1471       C  0.93793412  0.35407674  0.92687409     0.37700
C1472       C  0.86707912  0.37005576  0.91109469     0.37600
C1473       C  0.88645026  0.39244867  0.93316022     0.36100
C1474       C  0.91848397  0.33167641  0.90480896     0.36100
N1475       N  0.87976416  0.40482476  0.93846165    -0.38800
N1476       N  0.92490919  0.31921755  0.89936302    -0.38800
N1477       N  0.85281708  0.37351882  0.90779961    -0.38200
N1478       N  0.95219804  0.35060793  0.93014841    -0.38200
C1479       C  0.87322380  0.41433941  0.07035725    -0.04900
C1480       C  0.87497742  0.39611156  0.07243817    -0.02000
C1481       C  0.86306233  0.38665152  0.08280438     0.03000
C1482       C  0.84900676  0.39514568  0.09106572    -0.04900
C1483       C  0.84711388  0.41329246  0.08888128    -0.02000
C1484       C  0.85915482  0.42282869  0.07872390     0.03000
C1485       C  0.88936730  0.38696396  0.06439752     0.37700
C1486       C  0.83232176  0.42215019  0.09651785     0.37600
C1487       C  0.85657713  0.44136174  0.07644766     0.36100
C1488       C  0.86576295  0.36819190  0.08552002     0.36100
N1489       N  0.85450341  0.45614818  0.07469632    -0.38800
N1490       N  0.86798170  0.35348510  0.08770493    -0.38800
N1491       N  0.82050006  0.42921525  0.10256162    -0.38200
N1492       N  0.90073320  0.37948987  0.05798882    -0.38200
C1493       C  0.92005954  0.40832038  0.98409526    -0.04900
C1494       C  0.92730036  0.40127610  0.99945112    -0.02000
C1495       C  0.92198764  0.40745705  0.01596335     0.03000
C1496       C  0.90930797  0.42064750  0.01725882    -0.04900
C1497       C  0.90217465  0.42777221  0.00191341    -0.02000
C1498       C  0.90760899  0.42171909  0.98541030     0.03000
C1499       C  0.94032195  0.38771652  0.99824513     0.37700
C1500       C  0.88922261  0.44139493  0.00312795     0.37600
C1501       C  0.90088388  0.42977554  0.96976709     0.36100
C1502       C  0.92996790  0.40062981  0.03161474     0.36100
N1503       N  0.89561977  0.43639085  0.95732922    -0.38800
N1504       N  0.93645025  0.39525969  0.04408359    -0.38800
N1505       N  0.87889791  0.45227209  0.00414036    -0.38200
N1506       N  0.95073836  0.37692148  0.99727261    -0.38200
C1507       C  0.91610802  0.55273680  0.10991860    -0.04900
C1508       C  0.92342248  0.55929433  0.12548299    -0.02000
C1509       C  0.91325801  0.56928632  0.13710570     0.03000
C1510       C  0.89562298  0.57291238  0.13332222    -0.04900
C1511       C  0.88830264  0.56636610  0.11774854    -0.02000
C1512       C  0.89844008  0.55627603  0.10617416     0.03000
C1513       C  0.94125199  0.55510867  0.12998377     0.37700
C1514       C  0.87046817  0.57053662  0.11325370     0.37600
C1515       C  0.89072979  0.54994127  0.09014324     0.36100
C1516       C  0.92084628  0.57522027  0.15334067     0.36100
N1517       N  0.88454551  0.54486355  0.07738470    -0.38800
N1518       N  0.92691280  0.57992450  0.16629623    -0.38800
N1519       N  0.85625895  0.57389839  0.10964011    -0.38200
N1520       N  0.95545632  0.55172126  0.13358654    -0.38200
C1521       C  0.92375320  0.49945014  0.07464831    -0.04900
C1522       C  0.91831660  0.48659069  0.08655032    -0.02000
C1523       C  0.91175265  0.47044335  0.08057245     0.03000
C1524       C  0.91056484  0.46680026  0.06243656    -0.04900
C1525       C  0.91586471  0.47997788  0.05056177    -0.02000
C1526       C  0.92241165  0.49607624  0.05665622     0.03000
C1527       C  0.92003387  0.48975071  0.10509845     0.37700
C1528       C  0.91411165  0.47749304  0.03193133     0.37600
C1529       C  0.92717366  0.50952200  0.04429752     0.36100
C1530       C  0.90663132  0.45756887  0.09336657     0.36100
N1531       N  0.93093673  0.52027184  0.03447723    -0.38800
N1532       N  0.90246018  0.44742781  0.10366423    -0.38800
N1533       N  0.91285740  0.47571241  0.01703287    -0.38200
N1534       N  0.92144227  0.49227535  0.11987633    -0.38200
C1535       C  0.05080754  0.41312644  0.88882937    -0.04900
C1536       C  0.05490268  0.41998582  0.87230447    -0.02000
C1537       C  0.06489755  0.41018570  0.86040013     0.03000
C1538       C  0.07125144  0.39358912  0.86508526    -0.04900
C1539       C  0.06764928  0.38702183  0.88187964    -0.02000
C1540       C  0.05735876  0.39668425  0.89363172     0.03000
C1541       C  0.04863788  0.43707926  0.86745777     0.37700
C1542       C  0.07523894  0.37069363  0.88742252     0.37600
C1543       C  0.05415955  0.39005201  0.91100223     0.36100
C1544       C  0.06816443  0.41700915  0.84312585     0.36100
N1545       N  0.05164125  0.38485132  0.92489462    -0.38800
N1546       N  0.07074616  0.42243625  0.82933196    -0.38800
N1547       N  0.08139874  0.35774073  0.89191395    -0.38200
N1548       N  0.04370716  0.45074983  0.86362611    -0.38200
C1549       C  0.99882550  0.42024791  0.92620119    -0.04900
C1550       C  0.98543897  0.41590226  0.91437393     0.19600
C1551       C  0.96900309  0.41026155  0.92046875     0.03000
C1552       C  0.96568062  0.40868517  0.93861363    -0.04900
C1553       C  0.97921109  0.41320826  0.95041432    -0.02000
C1554       C  0.99555461  0.41895325  0.94422996     0.03000
C1555       C  0.98829184  0.41794988  0.89581746     0.37700
C1556       C  0.97672463  0.41172064  0.96906634     0.37600
C1557       C  0.00925143  0.42308735  0.95656925     0.36100
C1558       C  0.95538748  0.40681564  0.90783886     0.36100
N1559       N  0.02016182  0.42641857  0.96639389    -0.38800
N1560       N  0.94458871  0.40407115  0.89770837    -0.38800
N1561       N  0.97490936  0.41074035  0.98397740    -0.38200
N1562       N  0.99052579  0.41960512  0.88102375    -0.38200
C1563       C  0.10271563  0.54443116  0.93511398    -0.04900
C1564       C  0.11847051  0.54998525  0.94282441    -0.02000
C1565       C  0.13059359  0.55996215  0.93319996     0.03000
C1566       C  0.12730195  0.56425174  0.91561123    -0.04900
C1567       C  0.11199249  0.55786059  0.90761789    -0.02000
C1568       C  0.09972407  0.54816355  0.91732601     0.03000
C1569       C  0.12262070  0.54470430  0.96044942     0.37700
C1570       C  0.10852875  0.56165752  0.88946406     0.37600
C1571       C  0.08371158  0.54255118  0.90905313     0.36100
C1572       C  0.14682751  0.56520849  0.94124401     0.36100
N1573       N  0.07095493  0.53806515  0.90243687    -0.38800
N1574       N  0.15981063  0.56932423  0.94765240    -0.38800
N1575       N  0.10578065  0.56457839  0.87495710    -0.38200
N1576       N  0.12597479  0.54032091  0.97444834    -0.38200
C1577       C  0.06176356  0.49500282  0.94189749    -0.04900
C1578       C  0.07239115  0.48182322  0.93477187    -0.02000
C1579       C  0.06498187  0.46631762  0.92818476     0.03000
C1580       C  0.04663597  0.46379348  0.92822373    -0.04900
C1581       C  0.03605468  0.47696463  0.93573685    -0.02000
C1582       C  0.04357989  0.49226536  0.94267248     0.03000
C1583       C  0.09117101  0.48380633  0.93486897     0.37700
C1584       C  0.01725905  0.47524247  0.93610560     0.37600
C1585       C  0.03236287  0.50538686  0.95030867     0.36100
C1586       C  0.07659405  0.45278137  0.92200924     0.36100
N1587       N  0.02341069  0.51574810  0.95653108    -0.38800
N1588       N  0.08592242  0.44205498  0.91709322    -0.38800
N1589       N  0.00227104  0.47396390  0.93653661    -0.38200
N1590       N  0.10614061  0.48532406  0.93492828    -0.38200
C1591       C  0.07477091  0.61596053  0.09159485    -0.04900
C1592       C  0.08311257  0.60218608  0.08270106    -0.02000
C1593       C  0.07347699  0.59071622  0.07198069     0.03000
C1594       C  0.05517283  0.59241197  0.07045916    -0.04900
C1595       C  0.04684076  0.60619413  0.07944076    -0.02000
C1596       C  0.05658556  0.61798447  0.08969420     0.03000
C1597       C  0.10157941  0.59922261  0.08516718     0.37700
C1598       C  0.02821524  0.60871656  0.07778102     0.37600
C1599       C  0.04785280  0.63265011  0.09772036     0.36100
C1600       C  0.08254208  0.57686306  0.06293728     0.36100
N1601       N  0.04084024  0.64435519  0.10404786    -0.38800
N1602       N  0.08986269  0.56593370  0.05563962    -0.38800
N1603       N  0.01335371  0.61070730  0.07656418    -0.38200
N1604       N  0.11628634  0.59677764  0.08716991    -0.38200
C1605       C  0.06406023  0.54090516  0.98710165    -0.04900
C1606       C  0.05832663  0.52981612  0.00072856    -0.02000
C1607       C  0.05074062  0.53677781  0.01598450     0.03000
C1608       C  0.04913998  0.55493090  0.01819169    -0.04900
C1609       C  0.05514709  0.56605905  0.00486830    -0.02000
C1610       C  0.06237593  0.55914733  0.98938237     0.03000
C1611       C  0.06065700  0.51113981  0.99947630     0.37700
C1612       C  0.05327471  0.58472100  0.00678939     0.37600
C1613       C  0.06737256  0.57097611  0.97557369     0.36100
C1614       C  0.04501345  0.52514844  0.02969883     0.36100
N1615       N  0.07133763  0.58044968  0.96458248    -0.38800
N1616       N  0.04039561  0.51588432  0.04061178    -0.38800
N1617       N  0.05177347  0.59960408  0.00831388    -0.38200
N1618       N  0.06246444  0.49624087  0.99853308    -0.38200
C1619       C  0.96954856  0.54463467  0.07490951    -0.04900
C1620       C  0.97058052  0.55493012  0.05975765    -0.02000
C1621       C  0.98691385  0.56057764  0.05344360     0.03000
C1622       C  0.00233838  0.55637170  0.06250669    -0.04900
C1623       C  0.00123797  0.54645721  0.07794300    -0.02000
C1624       C  0.98493833  0.54040792  0.08397197     0.03000
C1625       C  0.95476166  0.55984148  0.05076286     0.37700
C1626       C  0.01694584  0.54219695  0.08745630     0.37600
C1627       C  0.98399079  0.52971211  0.09945821     0.36100
C1628       C  0.98780993  0.57109070  0.03782871     0.36100
N1629       N  0.98322993  0.52112075  0.11177909    -0.38800
N1630       N  0.98854177  0.57947727  0.02536513    -0.38800
N1631       N  0.02950741  0.53887534  0.09503723    -0.38200
N1632       N  0.94209559  0.56381805  0.04369255    -0.38200
C1633       C  0.37657912  0.91445244  0.93034749    -0.04900
C1634       C  0.38112942  0.89740316  0.92524038    -0.02000
C1635       C  0.36940927  0.88715706  0.91539916     0.03000
C1636       C  0.35301026  0.89386171  0.91050032    -0.04900
C1637       C  0.34860634  0.91104103  0.91534810    -0.02000
C1638       C  0.36035315  0.92129973  0.92510901     0.03000
C1639       C  0.39821209  0.89064318  0.92943396     0.37700
C1640       C  0.33165251  0.91799006  0.91092253     0.37600
C1641       C  0.35549000  0.93880325  0.93016163     0.36100
C1642       C  0.37451718  0.86989957  0.90980259     0.36100
N1643       N  0.35164832  0.95278492  0.93414804    -0.38800
N1644       N  0.37863579  0.85615157  0.90530986    -0.38800
N1645       N  0.31810869  0.92352033  0.90744386    -0.38200
N1646       N  0.41187335  0.88523612  0.93262460    -0.38200
C1647       C  0.41340447  0.87541791  0.07104291    -0.04900
C1648       C  0.42148921  0.86112665  0.07942211    -0.02000
C1649       C  0.41156523  0.84921375  0.08936878     0.03000
C1650       C  0.39342470  0.85149586  0.09141279    -0.04900
C1651       C  0.38537037  0.86585643  0.08324447    -0.02000
C1652       C  0.39520439  0.87758366  0.07301421     0.03000
C1653       C  0.44002326  0.85822960  0.07744051     0.37700
C1654       C  0.36699170  0.86912398  0.08597291     0.37600
C1655       C  0.38644588  0.89222853  0.06505113     0.36100
C1656       C  0.42004795  0.83419675  0.09696256     0.36100
N1657       N  0.37915864  0.90376477  0.05876296    -0.38800
N1658       N  0.42685557  0.82221898  0.10297327    -0.38800
N1659       N  0.35235473  0.87180055  0.08817328    -0.38200
N1660       N  0.45481460  0.85593321  0.07594939    -0.38200
C1661       C  0.41011762  0.92275171  0.98464602    -0.04900
C1662       C  0.40183842  0.92883668  0.99986781    -0.02000
C1663       C  0.40772019  0.92345811  0.01644827     0.03000
C1664       C  0.42133665  0.91124467  0.01790968    -0.04900
C1665       C  0.42927256  0.90478692  0.00263958    -0.02000
C1666       C  0.42395427  0.91081800  0.98610714     0.03000
C1667       C  0.38703574  0.94039647  0.99843807     0.37700
C1668       C  0.44269111  0.89163537  0.00391681     0.37600
C1669       C  0.43299524  0.90504098  0.97060380     0.36100
C1670       C  0.40022358  0.93105175  0.03198379     0.36100
N1671       N  0.44035340  0.90055345  0.95826932    -0.38800
N1672       N  0.39435602  0.93738568  0.04430983    -0.38800
N1673       N  0.45330527  0.88104002  0.00492079    -0.38200
N1674       N  0.37509015  0.94944746  0.99727743    -0.38200
C1675       C  0.55353488  0.91502758  0.11162796    -0.04900
C1676       C  0.55616731  0.89699753  0.10912564    -0.02000
C1677       C  0.56575167  0.88719290  0.12137429     0.03000
C1678       C  0.57246157  0.89514996  0.13656737    -0.04900
C1679       C  0.56999045  0.91322232  0.13898177    -0.02000
C1680       C  0.56084589  0.92312948  0.12647722     0.03000
C1681       C  0.54958105  0.88855913  0.09356975     0.37700
C1682       C  0.57622408  0.92162344  0.15470182     0.37600
C1683       C  0.55860222  0.94165111  0.12922885     0.36100
C1684       C  0.56936468  0.86902565  0.11786732     0.36100
N1685       N  0.55693520  0.95644240  0.13137121    -0.38800
N1686       N  0.57233136  0.85456338  0.11501033    -0.38800
N1687       N  0.58113203  0.92836930  0.16724087    -0.38200
N1688       N  0.54432486  0.88181225  0.08117430    -0.38200
C1689       C  0.46715319  0.91084601  0.06334014    -0.04900
C1690       C  0.48076865  0.91498086  0.05151656    -0.02000
C1691       C  0.49708331  0.92088087  0.05764650     0.03000
C1692       C  0.50042670  0.92217330  0.07565467    -0.04900
C1693       C  0.48718280  0.91762936  0.08752555    -0.02000
C1694       C  0.47057218  0.91241321  0.08147209     0.03000
C1695       C  0.47846952  0.91282617  0.03291371     0.37700
C1696       C  0.49044352  0.91888194  0.10608346     0.37600
C1697       C  0.45685739  0.90952244  0.09410057     0.36100
C1698       C  0.51068814  0.92521898  0.04528328     0.36100
N1699       N  0.44594790  0.90730933  0.10422646    -0.38800
N1700       N  0.52151622  0.92874967  0.03545141    -0.38800
N1701       N  0.49307290  0.91979909  0.12088031    -0.38200
N1702       N  0.47701384  0.91128901  0.01801099    -0.38200
C1703       C  0.41682213  0.05414211  0.89199866    -0.04900
C1704       C  0.42495377  0.06249158  0.87774577    -0.02000
C1705       C  0.41510077  0.07259471  0.86601178     0.03000
C1706       C  0.39699281  0.07467431  0.86841893    -0.04900
C1707       C  0.38889233  0.06661007  0.88281788    -0.02000
C1708       C  0.39871459  0.05638848  0.89450447     0.03000
C1709       C  0.44344345  0.06039961  0.87470025     0.37700
C1710       C  0.37052619  0.06937953  0.88608998     0.37600
C1711       C  0.39019851  0.04878072  0.90953225     0.36100
C1712       C  0.42363487  0.08033028  0.85106071     0.36100
N1713       N  0.38342146  0.04270926  0.92151599    -0.38800
N1714       N  0.43049134  0.08649357  0.83917099    -0.38800
N1715       N  0.35589339  0.07159309  0.88877920    -0.38200
N1716       N  0.45818412  0.05898077  0.87208955    -0.38200
C1717       C  0.42318383  0.00097032  0.92741278    -0.04900
C1718       C  0.41600117  0.99942664  0.94420844    -0.02000
C1719       C  0.40982404  0.98319537  0.95019787     0.03000
C1720       C  0.41065776  0.96832252  0.93934761    -0.04900
C1721       C  0.41751311  0.97005975  0.92231751    -0.02000
C1722       C  0.42372558  0.98631022  0.91641219     0.03000
C1723       C  0.41446526  0.01472922  0.95513530     0.37700
C1724       C  0.41876654  0.95502867  0.91098494     0.37600
C1725       C  0.43098251  0.98791404  0.89906838     0.36100
C1726       C  0.40208271  0.98204491  0.96735309     0.36100
N1727       N  0.43677241  0.98923284  0.88524012    -0.38800
N1728       N  0.39592595  0.98129555  0.98106202    -0.38800
N1729       N  0.41974142  0.94304757  0.90192879    -0.38200
N1730       N  0.41310481  0.02696808  0.96378084    -0.38200
C1731       C  0.55568829  0.09270169  0.93136171    -0.04900
C1732       C  0.57317377  0.08843255  0.92763064    -0.02000
C1733       C  0.58361498  0.09977905  0.91765215     0.03000
C1734       C  0.57680792  0.11572331  0.91154458    -0.04900
C1735       C  0.55935742  0.12007228  0.91547272    -0.02000
C1736       C  0.54880096  0.10851922  0.92509841     0.03000
C1737       C  0.58033546  0.07205074  0.93361434     0.37700
C1738       C  0.55241668  0.13683389  0.91037013     0.37600
C1739       C  0.53098285  0.11325600  0.92906292     0.36100
C1740       C  0.60121107  0.09466278  0.91320720     0.36100
N1741       N  0.51676365  0.11704510  0.93216990    -0.38800
N1742       N  0.61522955  0.09050437  0.90968576    -0.38800
N1743       N  0.54689793  0.15023200  0.90637526    -0.38200
N1744       N  0.58602263  0.05900050  0.93843726    -0.38200
C1745       C  0.50199806  0.05799863  0.93959316    -0.04900
C1746       C  0.48723183  0.05913115  0.95052754    -0.02000
C1747       C  0.47092961  0.05293945  0.94474948     0.03000
C1748       C  0.46923290  0.04556524  0.92803651    -0.04900
C1749       C  0.48393926  0.04431451  0.91714114    -0.02000
C1750       C  0.50025217  0.05054161  0.92285826     0.03000
C1751       C  0.48866518  0.06709251  0.96758888     0.37700
C1752       C  0.48239967  0.03605803  0.90024124     0.37600
C1753       C  0.51537508  0.04858818  0.91176003     0.36100
C1754       C  0.45581217  0.05437981  0.95592653     0.36100
N1755       N  0.52745421  0.04700415  0.90293269    -0.38800
N1756       N  0.44377112  0.05557596  0.96486213    -0.38800
N1757       N  0.48123263  0.02935374  0.88680996    -0.38200
N1758       N  0.48982891  0.07343032  0.98119953    -0.38200
C1759       C  0.59566343  0.05194046  0.06987540    -0.04900
C1760       C  0.59292158  0.05539801  0.08774068    -0.02000
C1761       C  0.60527010  0.06504678  0.09736019     0.03000
C1762       C  0.62040991  0.07155368  0.08918796    -0.04900
C1763       C  0.62312781  0.06814066  0.07132167    -0.02000
C1764       C  0.61079563  0.05848814  0.06170120     0.03000
C1765       C  0.57692141  0.04986855  0.09607308     0.37700
C1766       C  0.63897164  0.07397126  0.06290714     0.37600
C1767       C  0.61391739  0.05504386  0.04339856     0.36100
C1768       C  0.60201954  0.06879001  0.11557471     0.36100
N1769       N  0.61632435  0.05237361  0.02877817    -0.38800
N1770       N  0.59944719  0.07174498  0.13011159    -0.38800
N1771       N  0.65161972  0.07853268  0.05615693    -0.38200
N1772       N  0.56411979  0.04557573  0.10271108    -0.38200
C1773       C  0.55823390  0.00010596  0.06280445    -0.04900
C1774       C  0.54126323  0.99851108  0.06953989    -0.02000
C1775       C  0.53519196  0.98228723  0.07563541     0.03000
C1776       C  0.54601386  0.96742119  0.07487787    -0.04900
C1777       C  0.56294177  0.96902950  0.06783051    -0.02000
C1778       C  0.56900769  0.98531089  0.06184993     0.03000
C1779       C  0.53010046  0.01366870  0.07037295     0.37700
C1780       C  0.57390218  0.95381166  0.06602653     0.37600
C1781       C  0.58616036  0.98676786  0.05414326     0.36100
C1782       C  0.51794201  0.98106744  0.08315969     0.36100
N1783       N  0.59979377  0.98798625  0.04790167    -0.38800
N1784       N  0.50418279  0.98007304  0.08916113    -0.38800
N1785       N  0.58263969  0.94167214  0.06451936    -0.38200
N1786       N  0.52120789  0.02577041  0.07100006    -0.38200
C1787       C  0.55930963  0.04530975  0.01724362    -0.04900
C1788       C  0.55611569  0.06326676  0.01456265    -0.02000
C1789       C  0.55061679  0.06934648  0.99812817     0.03000
C1790       C  0.54774108  0.05755911  0.98436647    -0.04900
C1791       C  0.55099250  0.03971109  0.98690527    -0.02000
C1792       C  0.55710984  0.03365020  0.00311272     0.03000
C1793       C  0.55792925  0.07556126  0.02877382     0.37700
C1794       C  0.54846842  0.02759468  0.97264109     0.37600
C1795       C  0.56195000  0.01551364  0.00486816     0.36100
C1796       C  0.54741672  0.08774172  0.99550083     0.36100
N1797       N  0.56592558  0.00108019  0.00623269    -0.38800
N1798       N  0.54489936  0.10240300  0.99334026    -0.38800
N1799       N  0.54641238  0.01794253  0.96127008    -0.38200
N1800       N  0.55938083  0.08542444  0.04005815    -0.38200
C1801       C  0.41664250  0.59160260  0.42924612    -0.04900
C1802       C  0.42201160  0.60881612  0.42583488    -0.02000
C1803       C  0.41159486  0.61989950  0.41549003     0.03000
C1804       C  0.39555949  0.61396241  0.40866806    -0.04900
C1805       C  0.39030103  0.59666811  0.41194560    -0.02000
C1806       C  0.40083825  0.58552712  0.42207415     0.03000
C1807       C  0.43789013  0.61538196  0.43361621     0.37700
C1808       C  0.37423699  0.59014858  0.40451180     0.37600
C1809       C  0.39563046  0.56760466  0.42477217     0.36100
C1810       C  0.41710239  0.63765563  0.41240713     0.36100
N1811       N  0.39159440  0.55327703  0.42691525    -0.38800
N1812       N  0.42146867  0.65182838  0.40991462    -0.38800
N1813       N  0.36144406  0.58489119  0.39857163    -0.38200
N1814       N  0.45050285  0.62065916  0.43991383    -0.38200
C1815       C  0.55800727  0.55251376  0.39455990    -0.04900
C1816       C  0.56330853  0.54513658  0.37856768    -0.02000
C1817       C  0.57303946  0.55503664  0.36648191     0.03000
C1818       C  0.57747943  0.57252311  0.37014559    -0.04900
C1819       C  0.57222456  0.57987614  0.38617413    -0.02000
C1820       C  0.56260359  0.56993495  0.39830394     0.03000
C1821       C  0.55800270  0.52759659  0.37411222     0.37700
C1822       C  0.57714723  0.59756730  0.39047731     0.37600
C1823       C  0.55782256  0.57756049  0.41489526     0.36100
C1824       C  0.57781902  0.54737742  0.34991237     0.36100
N1825       N  0.55401308  0.58362568  0.42813630    -0.38800
N1826       N  0.58162797  0.54126952  0.33669086    -0.38800
N1827       N  0.58106508  0.61167529  0.39394029    -0.38200
N1828       N  0.55369094  0.51363932  0.37051085    -0.38200
C1829       C  0.50460671  0.54659471  0.42993182    -0.04900
C1830       C  0.50041428  0.54830993  0.44772226    -0.02000
C1831       C  0.48364596  0.55387673  0.45291964     0.03000
C1832       C  0.47063845  0.55771092  0.44032587    -0.04900
C1833       C  0.47497888  0.55591048  0.42244177    -0.02000
C1834       C  0.49189051  0.55074315  0.41733599     0.03000
C1835       C  0.51366117  0.54500962  0.46075389     0.37700
C1836       C  0.46187216  0.55842980  0.40910055     0.37600
C1837       C  0.49604535  0.54925336  0.39897442     0.36100
C1838       C  0.48009493  0.55591550  0.47134613     0.36100
N1839       N  0.49941143  0.54818313  0.38434068    -0.38800
N1840       N  0.47731340  0.55741724  0.48606739    -0.38800
N1841       N  0.45144897  0.56033933  0.39841235    -0.38200
N1842       N  0.52426658  0.54247116  0.47112248    -0.38200
C1843       C  0.59063651  0.40952144  0.43164785    -0.04900
C1844       C  0.60396600  0.39923684  0.43914658    -0.02000
C1845       C  0.61492142  0.38887686  0.42857316     0.03000
C1846       C  0.61242918  0.38805240  0.41033439    -0.04900
C1847       C  0.59874990  0.39784564  0.40287687    -0.02000
C1848       C  0.58802675  0.40854798  0.41339788     0.03000
C1849       C  0.60679803  0.39946767  0.45780963     0.37700
C1850       C  0.59520694  0.39646244  0.38438618     0.37600
C1851       C  0.57376386  0.41793753  0.40540175     0.36100
C1852       C  0.62933901  0.37970502  0.43653971     0.36100
N1853       N  0.56237785  0.42539619  0.39900858    -0.38800
N1854       N  0.64086380  0.37245279  0.44291894    -0.38800
N1855       N  0.59230056  0.39536537  0.36965223    -0.38200
N1856       N  0.60899994  0.39945533  0.47270324    -0.38200
C1857       C  0.55904292  0.46524537  0.44143633    -0.04900
C1858       C  0.57157895  0.47801847  0.43732174    -0.02000
C1859       C  0.56640965  0.49488648  0.43196211     0.03000
C1860       C  0.54849856  0.49924849  0.43040960    -0.04900
C1861       C  0.53598701  0.48630080  0.43471232    -0.02000
C1862       C  0.54124966  0.46959893  0.44033700     0.03000
C1863       C  0.58989798  0.47406903  0.43945475     0.37700
C1864       C  0.51752385  0.48974968  0.43297323     0.37600
C1865       C  0.52819323  0.45668678  0.44471914     0.36100
C1866       C  0.57971905  0.50786622  0.42877476     0.36100
N1867       N  0.51781631  0.44640305  0.44831025    -0.38800
N1868       N  0.59039438  0.51816938  0.42625794    -0.38800
N1869       N  0.50277427  0.49241366  0.43168499    -0.38200
N1870       N  0.60450055  0.47094415  0.44125547    -0.38200
C1871       C  0.54861213  0.36924978  0.57110057    -0.04900
C1872       C  0.56686881  0.37102531  0.57302441    -0.02000
C1873       C  0.57649663  0.35874572  0.58272579     0.03000
C1874       C  0.56811250  0.34439268  0.59054029    -0.04900
C1875       C  0.54989417  0.34263855  0.58876196    -0.02000
C1876       C  0.54017245  0.35509414  0.57935014     0.03000
C1877       C  0.57580033  0.38594976  0.56571996     0.37700
C1878       C  0.54115629  0.32758234  0.59601412     0.37600
C1879       C  0.52146999  0.35303673  0.57796866     0.36100
C1880       C  0.59501541  0.36134138  0.58525440     0.36100
N1881       N  0.50653486  0.35145593  0.57703613    -0.38800
N1882       N  0.60977162  0.36344177  0.58731805    -0.38800
N1883       N  0.53417782  0.31553277  0.60169988    -0.38200
N1884       N  0.58295742  0.39783967  0.55991897    -0.38200
C1885       C  0.54327575  0.40652190  0.51880719    -0.04900
C1886       C  0.54540343  0.42446815  0.51576003    -0.02000
C1887       C  0.55196637  0.43054148  0.49966468     0.03000
C1888       C  0.55637181  0.41869949  0.48608930    -0.04900
C1889       C  0.55432506  0.40059542  0.48938533    -0.02000
C1890       C  0.54786651  0.39463993  0.50558145     0.03000
C1891       C  0.54137807  0.43678128  0.52950660     0.37700
C1892       C  0.55837674  0.38781388  0.47610457     0.37600
C1893       C  0.54532471  0.37615594  0.50839721     0.36100
C1894       C  0.55462419  0.44909515  0.49757261     0.36100
N1895       N  0.54327303  0.36143289  0.51066266    -0.38800
N1896       N  0.55665109  0.46391615  0.49601491    -0.38800
N1897       N  0.56165679  0.37749647  0.46564533    -0.38200
N1898       N  0.53818469  0.44657317  0.54048228    -0.38200
C1899       C  0.35431056  0.57613558  0.59096783    -0.04900
C1900       C  0.36873962  0.56705390  0.59780807    -0.02000
C1901       C  0.37882814  0.55615101  0.58700295     0.03000
C1902       C  0.37455227  0.55405455  0.56919642    -0.04900
C1903       C  0.36028762  0.56336507  0.56229091    -0.02000
C1904       C  0.35034868  0.57446571  0.57305149     0.03000
C1905       C  0.37372516  0.56946590  0.61586211     0.37700
C1906       C  0.35530156  0.56100604  0.54423213     0.37600
C1907       C  0.33571913  0.58377518  0.56565408     0.36100
C1908       C  0.39402639  0.54759206  0.59418350     0.36100
N1909       N  0.32413936  0.59127623  0.55967450    -0.38800
N1910       N  0.40614590  0.54077199  0.59990570    -0.38800
N1911       N  0.35126783  0.55910142  0.52985057    -0.38200
N1912       N  0.37775817  0.57139841  0.63024053    -0.38200
C1913       C  0.40814146  0.54441820  0.51485401    -0.04900
C1914       C  0.41042333  0.53279003  0.50066882    -0.02000
C1915       C  0.41745431  0.53870260  0.48473357     0.03000
C1916       C  0.42178347  0.55635770  0.48249743    -0.04900
C1917       C  0.41899408  0.56812453  0.49630022    -0.02000
C1918       C  0.41252925  0.56219823  0.51246914     0.03000
C1919       C  0.40497081  0.51479541  0.50209556     0.37700
C1920       C  0.42317155  0.58637179  0.49396838     0.37600
C1921       C  0.41112977  0.57444379  0.52676731     0.36100
C1922       C  0.41975115  0.52667389  0.47037239     0.36100
N1923       N  0.41006177  0.58426192  0.53813194    -0.38800
N1924       N  0.42156598  0.51710651  0.45889478    -0.38800
N1925       N  0.42643625  0.60092470  0.49204624    -0.38200
N1926       N  0.40059824  0.50044569  0.50319308    -0.38200
C1927       C  0.41173691  0.41542965  0.61300406    -0.04900
C1928       C  0.40467020  0.42365600  0.62787142    -0.02000
C1929       C  0.39517542  0.41393393  0.64024627     0.03000
C1930       C  0.39270609  0.39584751  0.63796821    -0.04900
C1931       C  0.39970689  0.38764448  0.62307966    -0.02000
C1932       C  0.40907372  0.39737012  0.61064854     0.03000
C1933       C  0.40769446  0.44203181  0.63085931     0.37700
C1934       C  0.39675978  0.36924647  0.62013492     0.37600
C1935       C  0.41540151  0.38879441  0.59506214     0.36100
C1936       C  0.38848686  0.42251939  0.65566740     0.36100
N1937       N  0.42043684  0.38196418  0.58263001    -0.38800
N1938       N  0.38314236  0.42938450  0.66795077    -0.38800
N1939       N  0.39444597  0.35457533  0.61775402    -0.38200
N1940       N  0.41010102  0.45668173  0.63328245    -0.38200
C1941       C  0.46390471  0.42057120  0.57574924    -0.04900
C1942       C  0.46810544  0.42096628  0.55785674    -0.02000
C1943       C  0.48411479  0.41423217  0.55178874     0.03000
C1944       C  0.49656131  0.40722043  0.56358032    -0.04900
C1945       C  0.49213239  0.40668806  0.58157120    -0.02000
C1946       C  0.47595422  0.41316917  0.58751413     0.03000
C1947       C  0.45560639  0.42770622  0.54540759     0.37700
C1948       C  0.50419893  0.39981489  0.59435174     0.37600
C1949       C  0.47198306  0.41256375  0.60598194     0.36100
C1950       C  0.48719897  0.41404526  0.53315923     0.36100
N1951       N  0.46881921  0.41195766  0.62068832    -0.38800
N1952       N  0.48951041  0.41397152  0.51828179    -0.38800
N1953       N  0.51366081  0.39427743  0.60465735    -0.38200
N1954       N  0.44565268  0.43310154  0.53550221    -0.38200
C1955       C  0.41886993  0.46689151  0.57440714    -0.04900
C1956       C  0.43074444  0.48000296  0.56900723    -0.02000
C1957       C  0.42466802  0.49590985  0.56216210     0.03000
C1958       C  0.40669063  0.49916146  0.56067087    -0.04900
C1959       C  0.39476314  0.48632383  0.56612054    -0.02000
C1960       C  0.40074663  0.47027088  0.57283310     0.03000
C1961       C  0.44935646  0.47761186  0.57093528     0.37700
C1962       C  0.37623401  0.48943499  0.56435007     0.37600
C1963       C  0.38804025  0.45714888  0.57756150     0.36100
C1964       C  0.43703457  0.50931610  0.55728088     0.36100
N1965       N  0.37782578  0.44676694  0.58134643    -0.38800
N1966       N  0.44683204  0.52005063  0.55339840    -0.38800
N1967       N  0.36146174  0.49190290  0.56294205    -0.38200
N1968       N  0.46422108  0.47579031  0.57235914    -0.38200
loop_ 
_geom_bond_atom_site_label_1 
_geom_bond_atom_site_label_2 
_geom_bond_distance 
_geom_bond_site_symmetry_2 
_ccdc_geom_bond_type 
C1            N2   1.359       .  A
C1            N6   1.361       .  A
C1         C1927   1.494       .  S
N2            C3   1.357       .  A
C3            N4   1.360       .  A
C3         C1941   1.501       .  S
N4            C5   1.362       .  A
C5            N6   1.362       .  A
C5         C1955   1.509       .  S
C7            N8   1.360       .  A
C7           N12   1.361       .  A
C7         C1902   1.495       .  S
N8            C9   1.358       .  A
C9           N10   1.360       .  A
C9         C1958   1.491       .  S
N10          C11   1.361       .  A
C11          N12   1.361       .  A
C11        C1913   1.505       .  S
C13          N14   1.360       .  A
C13          N18   1.362       .  A
C13        C1871   1.502       .  S
N14          C15   1.359       .  A
C15          N16   1.360       .  A
C15        C1885   1.496       .  S
N16          C17   1.362       .  A
C17          N18   1.363       .  A
C17        C1944   1.517       .  S
C19          N20   1.365       .  A
C19          N24   1.363       .  A
C19        C1843   1.508       .  S
N20          C21   1.363       .  A
C21          N22   1.360       .  A
C21        C1857   1.499       .  S
N22          C23   1.361       .  A
C23          N24   1.362       .  A
C23        C1888   1.517       .  S
C25          N26   1.364       .  A
C25          N30   1.360       .  A
C25        C1815   1.497       .  S
N26          C27   1.365       .  A
C27          N28   1.363       .  A
C27        C1860   1.516       .  S
N28          C29   1.361       .  A
C29          N30   1.359       .  A
C29        C1829   1.497       .  S
C31          N32   1.359       .  A
C31          N36   1.362       .  A
C31        C1801   1.492       .  S
N32          C33   1.358       .  A
C33          N34   1.360       .  A
C33        C1916   1.489       .  S
N34          C35   1.363       .  A
C35          N36   1.365       .  A
C35        C1832   1.512       .  S
C37          N38   1.359       .  A
C37          N42   1.361       .  A
C37        C1759   1.492       .  S
N38          C39   1.359       .  A
C39          N40   1.360       .  A
C39        C1787   1.496       .  S
N40          C41   1.358       .  A
C41          N42   1.360       .  A
C41        C1773   1.485       .  S
C43          N44   1.360       .  A
C43          N48   1.361       .  A
C43        C1731   1.491       .  S
N44          C45   1.358       .  A
C45          N46   1.357       .  A
C45        C1790   1.483       .  S
N46          C47   1.358       .  A
C47          N48   1.361       .  A
C47        C1745   1.490       .  S
C49          N50   1.361       .  A
C49          N54   1.360       .  A
C49        C1703   1.496       .  S
N50          C51   1.359       .  A
C51          N52   1.359       .  A
C51        C1717   1.485       .  S
N52          C53   1.359       .  A
C53          N54   1.358       .  A
C53        C1748   1.483       .  S
C55          N56   1.363       .  A
C55          N60   1.362       .  A
C55        C1675   1.498       .  S
N56          C57   1.361       .  A
C57          N58   1.359       .  A
C57        C1692   1.495       .  S
N58          C59   1.359       .  A
C59          N60   1.361       .  A
C59        C1776   1.494       .  S
C61          N62   1.363       .  A
C61          N66   1.363       .  A
C61        C1647   1.506       .  S
N62          C63   1.361       .  A
C63          N64   1.360       .  A
C63        C1664   1.490       .  S
N64          C65   1.362       .  A
C65          N66   1.363       .  A
C65        C1689   1.512       .  S
C67          N68   1.360       .  A
C67          N72   1.362       .  A
C67        C1633   1.493       .  S
N68          C69   1.361       .  A
C69          N70   1.361       .  A
C69        C1720   1.497       .  S
N70          C71   1.360       .  A
C71          N72   1.361       .  A
C71        C1661   1.488       .  S
C73          N74   1.362       .  A
C73          N78   1.362       .  A
C73        C1594   1.504       .  S
N74          C75   1.360       .  A
C75          N76   1.361       .  A
C75        C1622   1.492       .  S
N76          C77   1.362       .  A
C77          N78   1.361       .  A
C77        C1608   1.497       .  S
C79          N80   1.364       .  A
C79          N84   1.361       .  A
C79        C1563   1.499       .  S
N80          C81   1.364       .  A
C81          N82   1.359       .  A
C81        C1605   1.509       .  S
N82          C83   1.358       .  A
C83          N84   1.361       .  A
C83        C1577   1.499       .  S
C85          N86   1.360       .  A
C85          N90   1.357       .  A
C85        C1535   1.486       .  S
N86          C87   1.361       .  A
C87          N88   1.361       .  A
C87        C1549   1.496   1_455  S
N88          C89   1.361       .  A
C89          N90   1.360       .  A
C89        C1580   1.512       .  S
C91          N92   1.363       .  A
C91          N96   1.361       .  A
C91        C1507   1.496       .  S
N92          C93   1.361       .  A
C93          N94   1.360       .  A
C93        C1619   1.489       .  S
N94          C95   1.362       .  A
C95          N96   1.360       .  A
C95        C1521   1.495       .  S
C97          N98   1.363       .  A
C97         N102   1.362       .  A
C97        C1479   1.505       .  S
N98          C99   1.363       .  A
C99         N100   1.362       .  A
C99        C1524   1.515       .  S
N100        C101   1.360       .  A
C101        N102   1.360       .  A
C101       C1496   1.489       .  S
C103        N104   1.361       .  A
C103        N108   1.364       .  A
C103       C1465   1.501       .  S
N104        C105   1.361       .  A
C105        N106   1.361       .  A
C105       C1552   1.511       .  S
N106        C107   1.359       .  A
C107        N108   1.362       .  A
C107       C1493   1.490       .  S
C109        N110   1.363       .  A
C109        N114   1.364       .  A
C109       C1426   1.503       .  S
N110        C111   1.361       .  A
C111        N112   1.361       .  A
C111       C1451   1.492   1_545  S
N112        C113   1.360       .  A
C113        N114   1.362       .  A
C113       C1437   1.492       .  S
C115        N116   1.360       .  A
C115        N120   1.364       .  A
C115       C1395   1.500       .  S
N116        C117   1.357       .  A
C117        N118   1.359       .  A
C117       C1409   1.484       .  S
N118        C119   1.362       .  A
C119        N120   1.364       .  A
C119       C1454   1.502       .  S
C121        N122   1.362       .  A
C121        N126   1.361       .  A
C121       C1370   1.502       .  S
N122        C123   1.362       .  A
C123        N124   1.360       .  A
C123       C1412   1.487       .  S
N124        C125   1.361       .  A
C125        N126   1.360       .  A
C125       C1381   1.500   1_455  S
C127        N128   1.362       .  A
C127        N132   1.359       .  A
C127       C1339   1.491       .  S
N128        C129   1.362       .  A
C129        N130   1.363       .  A
C129       C1440   1.495       .  S
N130        C131   1.363       .  A
C131        N132   1.359       .  A
C131       C1353   1.490       .  S
C133        N134   1.361       .  A
C133        N138   1.359       .  A
C133       C1311   1.491       .  S
N134        C135   1.363       .  A
C135        N136   1.362       .  A
C135       C1356   1.499       .  S
N136        C137   1.360       .  A
C137        N138   1.359       .  A
C137       C1328   1.491   1_545  S
C139        N140   1.360       .  A
C139        N144   1.361       .  A
C139       C1300   1.492       .  S
N140        C141   1.361       .  A
C141        N142   1.361       .  A
C141       C1325   1.502       .  S
N142        C143   1.359       .  A
C143        N144   1.359       .  A
C143       C1384   1.486       .  S
N145        C149   1.348       .  A
N145        N146   1.322       .  A
N145       Cu153   2.088       .  S
N146        C147   1.347       .  A
N146       Cu152   2.083       .  S
C147        C148   1.387       .  A
C147        H150   1.082       .  S
C148       C1510   1.497       .  S
C148        C149   1.388       .  A
C149        H151   1.082       .  S
Cu152       N155   2.083       .  S
Cu153       N163   2.088       .  S
Cu154       N156   2.074       .  S
Cu154       N162   2.074       .  S
N155        C159   1.345       .  A
N155        N156   1.323       .  A
N156        C157   1.347       .  A
C157        C158   1.382       .  A
C157        H160   1.082       .  S
C158        C189   1.473       .  S
C158        C159   1.384       .  A
C159        H161   1.082       .  S
N162        C166   1.347       .  A
N162        N163   1.323       .  A
N163        C164   1.345       .  A
C164        C165   1.385       .  A
C164        H167   1.082       .  S
C165        C316   1.474       .  S
C165        C166   1.383       .  A
C166        H168   1.082       .  S
N169        C173   1.350       .  A
N169        N170   1.324       .  A
N169       Cu177   2.091       .  S
N170        C171   1.343       .  A
N170       Cu176   2.074       .  S
C171        C172   1.381       .  A
C171        H174   1.082       .  S
C172        C196   1.475       .  S
C172        C173   1.386       .  A
C173        H175   1.082       .  S
Cu176       N179   2.073       .  S
Cu177       N187   2.091       .  S
Cu178       N180   2.061       .  S
Cu178       N186   2.062       .  S
N179        C183   1.346       .  A
N179        N180   1.321       .  A
N180        C181   1.342       .  A
C181        C182   1.381       .  A
C181        H184   1.082       .  S
C182       C1262   1.469       .  S
C182        C183   1.385       .  A
C183        H185   1.082       .  S
N186        C190   1.343       .  A
N186        N187   1.322       .  A
N187        C188   1.349       .  A
C188        C189   1.387       .  A
C188        H191   1.081       .  S
C189        C190   1.380       .  A
C190        H192   1.082       .  S
N193        C197   1.350       .  A
N193        N194   1.324       .  A
N193       Cu201   2.087       .  S
N194        C195   1.343       .  A
N194       Cu200   2.077       .  S
C195        C196   1.382       .  A
C195        H198   1.082       .  S
C196        C197   1.386       .  A
C197        H199   1.082       .  S
Cu200       N203   2.076       .  S
Cu201       N211   2.087       .  S
Cu202       N204   2.080       .  S
Cu202       N210   2.080       .  S
N203        C207   1.346       .  A
N203        N204   1.321       .  A
N204        C205   1.347       .  A
C205        C206   1.387       .  A
C205        H208   1.082       .  S
C206       C1297   1.494       .  S
C206        C207   1.386       .  A
C207        H209   1.082       .  S
N210        C214   1.343       .  A
N210        N211   1.324       .  A
N211        C212   1.349       .  A
C212        C213   1.385       .  A
C212        H215   1.082       .  S
C213        C292   1.474       .  S
C213        C214   1.382       .  A
C214        H216   1.082       .  S
N217        C221   1.347       .  A
N217        N218   1.324       .  A
N217       Cu225   2.093       .  S
N218        C219   1.349       .  A
N218       Cu224   2.088       .  S
C219        C220   1.385       .  A
C219        H222   1.082       .  S
C220        C285   1.479       .  S
C220        C221   1.385       .  A
C221        H223   1.082       .  S
Cu224       N227   2.087       .  S
Cu225       N235   2.092       .  S
Cu226       N228   2.081       .  S
Cu226       N234   2.081       .  S
N227        C231   1.350       .  A
N227        N228   1.323       .  A
N228        C229   1.344       .  A
C229        C230   1.383       .  A
C229        H232   1.082       .  S
C230        C333   1.477       .  S
C230        C231   1.386       .  A
C231        H233   1.082       .  S
N234        C238   1.347       .  A
N234        N235   1.322       .  A
N235        C236   1.349       .  A
C236        C237   1.389       .  A
C236        H239   1.082       .  S
C237       C1818   1.499       .  S
C237        C238   1.387       .  A
C238        H240   1.082       .  S
N241        C245   1.346       .  A
N241        N242   1.324       .  A
N241       Cu249   2.092       .  S
N242        C243   1.348       .  A
N242       Cu248   2.075       .  S
C243        C244   1.383       .  A
C243        H246   1.082       .  S
C244        C268   1.476       .  S
C244        C245   1.386       .  A
C245        H247   1.081       .  S
Cu248       N251   2.075       .  S
Cu249       N259   2.092       .  S
Cu250       N252   2.076       .  S
Cu250       N258   2.076       .  S
N251        C255   1.347       .  A
N251        N252   1.323       .  A
N252        C253   1.343       .  A
C253        C254   1.383       .  A
C253        H256   1.082       .  S
C254        C309   1.472       .  S
C254        C255   1.384       .  A
C255        H257   1.082       .  S
N258        C262   1.346       .  A
N258        N259   1.321       .  A
N259        C260   1.348       .  A
C260        C261   1.390       .  A
C260        H263   1.082       .  S
C261       C1678   1.499       .  S
C261        C262   1.387       .  A
C262        H264   1.082       .  S
N265        C269   1.351       .  A
N265        N266   1.323       .  A
N265       Cu273   2.101       .  S
N266        C267   1.342       .  A
N266       Cu272   2.062       .  S
C267        C268   1.379       .  A
C267        H270   1.082       .  S
C268        C269   1.390       .  A
C269        H271   1.081       .  S
Cu272       N275   2.062       .  S
Cu273       N283   2.102       .  S
Cu274       N276   2.079       .  S
Cu274       N282   2.080       .  S
N275        C279   1.344       .  A
N275        N276   1.321       .  A
N276        C277   1.346       .  A
C277        C278   1.386       .  A
C277        H280   1.082       .  S
C278       C1286   1.472       .  S
C278        C279   1.382       .  A
C279        H281   1.082       .  S
N282        C286   1.345       .  A
N282        N283   1.325       .  A
N283        C284   1.351       .  A
C284        C285   1.388       .  A
C284        H287   1.082       .  S
C285        C286   1.382       .  A
C286        H288   1.082       .  S
N289        C293   1.350       .  A
N289        N290   1.324       .  A
N289       Cu297   2.089       .  S
N290        C291   1.343       .  A
N290       Cu296   2.073       .  S
C291        C292   1.381       .  A
C291        H294   1.082       .  S
C292        C293   1.386       .  A
C293        H295   1.082       .  S
Cu296       N299   2.072       .  S
Cu297       N307   2.088       .  S
Cu298       N300   2.065       .  S
Cu298       N306   2.065       .  S
N299        C303   1.345       .  A
N299        N300   1.320       .  A
N300        C301   1.344       .  A
C301        C302   1.383       .  A
C301        H304   1.082       .  S
C302        C494   1.471       .  S
C302        C303   1.384       .  A
C303        H305   1.082       .  S
N306        C310   1.342       .  A
N306        N307   1.323       .  A
N307        C308   1.349       .  A
C308        C309   1.386       .  A
C308        H311   1.082       .  S
C309        C310   1.380       .  A
C310        H312   1.082       .  S
N313        C317   1.350       .  A
N313        N314   1.323       .  A
N313       Cu321   2.096       .  S
N314        C315   1.343       .  A
N314       Cu320   2.066       .  S
C315        C316   1.380       .  A
C315        H318   1.082       .  S
C316        C317   1.388       .  A
C317        H319   1.082       .  S
Cu320       N323   2.066       .  S
Cu321       N331   2.096       .  S
Cu322       N324   2.075       .  S
Cu322       N330   2.075       .  S
N323        C327   1.344       .  A
N323        N324   1.321       .  A
N324        C325   1.346       .  A
C325        C326   1.385       .  A
C325        H328   1.082       .  S
C326        C446   1.472       .  S
C326        C327   1.383       .  A
C327        H329   1.082       .  S
N330        C334   1.343       .  A
N330        N331   1.324       .  A
N331        C332   1.350       .  A
C332        C333   1.388       .  A
C332        H335   1.081       .  S
C333        C334   1.381       .  A
C334        H336   1.082       .  S
N337        C341   1.348       .  A
N337        N338   1.324       .  A
N337       Cu345   2.077       .  S
N338        C339   1.346       .  A
N338       Cu344   2.094       .  S
C339        C340   1.387       .  A
C339        H342   1.082       .  S
C340        C525   1.477       .  S
C340        C341   1.382       .  A
C341        H343   1.082       .  S
Cu344       N347   2.093       .  S
Cu345       N355   2.076       .  S
Cu346       N348   2.073       .  S
Cu346       N354   2.073       .  S
N347        C351   1.349       .  A
N347        N348   1.321       .  A
N348        C349   1.346       .  A
C349        C350   1.386       .  A
C349        H352   1.082       .  S
C350       C1314   1.498       .  S
C350        C351   1.390       .  A
C351        H353   1.082       .  S
N354        C358   1.343       .  A
N354        N355   1.322       .  A
N355        C356   1.347       .  A
C356        C357   1.384       .  A
C356        H359   1.083       .  S
C357        C501   1.472       .  S
C357        C358   1.383       .  A
C358        H360   1.081       .  S
N361        C365   1.345       .  A
N361        N362   1.324       .  A
N361       Cu369   2.083       .  S
N362        C363   1.348       .  A
N362       Cu368   2.082       .  S
C363        C364   1.384       .  A
C363        H366   1.082       .  S
C364        C460   1.475       .  S
C364        C365   1.384       .  A
C365        H367   1.082       .  S
Cu368       N371   2.082       .  S
Cu369       N379   2.083       .  S
Cu370       N372   2.075       .  S
Cu370       N378   2.074       .  S
N371        C375   1.348       .  A
N371        N372   1.323       .  A
N372        C373   1.344       .  A
C373        C374   1.383       .  A
C373        H376   1.082       .  S
C374        C484   1.474       .  S
C374        C375   1.385       .  A
C375        H377   1.082       .  S
N378        C382   1.346       .  A
N378        N379   1.321       .  A
N379        C380   1.347       .  A
C380        C381   1.387       .  A
C380        H383   1.082       .  S
C381       C1762   1.493       .  S
C381        C382   1.385       .  A
C382        H384   1.082       .  S
N385        C389   1.347       .  A
N385        N386   1.324       .  A
N385       Cu393   2.095       .  S
N386        C387   1.349       .  A
N386       Cu392   2.083       .  S
C387        C388   1.385       .  A
C387        H390   1.082       .  S
C388        C508   1.480       .  S
C388        C389   1.387       .  A
C389        H391   1.081       .  S
Cu392       N395   2.083       .  S
Cu393       N403   2.095       .  S
Cu394       N396   2.090       .  S
Cu394       N402   2.090       .  S
N395        C399   1.349       .  A
N395        N396   1.324       .  A
N396        C397   1.346       .  A
C397        C398   1.385       .  A
C397        H400   1.082       .  S
C398        C436   1.477       .  S
C398        C399   1.384       .  A
C399        H401   1.082       .  S
N402        C406   1.349       .  A
N402        N403   1.322       .  A
N403        C404   1.348       .  A
C404        C405   1.391       .  A
C404        H407   1.082       .  S
C405       C1846   1.506       .  S
C405        C406   1.390       .  A
C406        H408   1.082       .  S
N409        C413   1.349       .  A
N409        N410   1.323       .  A
N409       Cu417   2.082       .  S
N410        C411   1.344       .  A
N410       Cu416   2.086       .  S
C411        C412   1.385       .  A
C411        H414   1.081       .  S
C412        C477   1.476       .  S
C412        C413   1.385       .  A
C413        H415   1.082       .  S
Cu416       N419   2.085       .  S
Cu417       N427   2.082       .  S
Cu418       N420   2.090       .  S
Cu418       N426   2.090       .  S
N419        C423   1.348       .  A
N419        N420   1.322       .  A
N420        C421   1.348       .  A
C421        C422   1.389       .  A
C421        H424   1.082       .  S
C422       C1482   1.501       .  S
C422        C423   1.388       .  A
C423        H425   1.082       .  S
N426        C430   1.346       .  A
N426        N427   1.324       .  A
N427        C428   1.348       .  A
C428        C429   1.384       .  A
C428        H431   1.082       .  S
C429        C453   1.478       .  S
C429        C430   1.385       .  A
C430        H432   1.082       .  S
N433        C437   1.350       .  A
N433        N434   1.323       .  A
N433       Cu441   2.097       .  S
N434        C435   1.344       .  A
N434       Cu440   2.071       .  S
C435        C436   1.381       .  A
C435        H438   1.082       .  S
C436        C437   1.388       .  A
C437        H439   1.082       .  S
Cu440       N443   2.070       .  S
Cu441       N451   2.097       .  S
Cu442       N444   2.073       .  S
Cu442       N450   2.074       .  S
N443        C447   1.345       .  A
N443        N444   1.321       .  A
N444        C445   1.345       .  A
C445        C446   1.384       .  A
C445        H448   1.082       .  S
C446        C447   1.383       .  A
C447        H449   1.082       .  S
N450        C454   1.344       .  A
N450        N451   1.324       .  A
N451        C452   1.350       .  A
C452        C453   1.388       .  A
C452        H455   1.082       .  S
C453        C454   1.382       .  A
C454        H456   1.082       .  S
N457        C461   1.351       .  A
N457        N458   1.324       .  A
N457       Cu465   2.100       .  S
N458        C459   1.343       .  A
N458       Cu464   2.068       .  S
C459        C460   1.380       .  A
C459        H462   1.082       .  S
C460        C461   1.388       .  A
C461        H463   1.081       .  S
Cu464       N467   2.067       .  S
Cu465       N475   2.100       .  S
Cu466       N468   2.065       .  S
Cu466       N474   2.066       .  S
N467        C471   1.344       .  A
N467        N468   1.320       .  A
N468        C469   1.345       .  A
C469        C470   1.383       .  A
C469        H472   1.082       .  S
C470        C590   1.470   1_554  S
C470        C471   1.384       .  A
C471        H473   1.082       .  S
N474        C478   1.342       .  A
N474        N475   1.324       .  A
N475        C476   1.351       .  A
C476        C477   1.389       .  A
C476        H479   1.081       .  S
C477        C478   1.380       .  A
C478        H480   1.082       .  S
N481        C485   1.348       .  A
N481        N482   1.323       .  A
N481       Cu489   2.086       .  S
N482        C483   1.343       .  A
N482       Cu488   2.073       .  S
C483        C484   1.382       .  A
C483        H486   1.082       .  S
C484        C485   1.386       .  A
C485        H487   1.082       .  S
Cu488       N491   2.072       .  S
Cu489       N499   2.086       .  S
Cu490       N492   2.066       .  S
Cu490       N498   2.066       .  S
N491        C495   1.345       .  A
N491        N492   1.321       .  A
N492        C493   1.345       .  A
C493        C494   1.383   1_545  A
C493        H496   1.082   1_545  S
C494        C495   1.384   1_565  A
C495        H497   1.082   1_545  S
N498        C502   1.342       .  A
N498        N499   1.323       .  A
N499        C500   1.349       .  A
C500        C501   1.386       .  A
C500        H503   1.081       .  S
C501        C502   1.380       .  A
C502        H504   1.082       .  S
N505        C509   1.352       .  A
N505        N506   1.325       .  A
N505       Cu513   2.108       .  S
N506        C507   1.344       .  A
N506       Cu512   2.073       .  S
C507        C508   1.380       .  A
C507        H510   1.082       .  S
C508        C509   1.390       .  A
C509        H511   1.081       .  S
Cu512       N515   2.072       .  S
Cu513       N523   2.107       .  S
Cu514       N516   2.059       .  S
Cu514       N522   2.060       .  S
N515        C519   1.346       .  A
N515        N516   1.320       .  A
N516        C517   1.343       .  A
C517        C518   1.382       .  A
C517        H520   1.082       .  S
C518        C662   1.469       .  S
C518        C519   1.385       .  A
C519        H521   1.082       .  S
N522        C526   1.342       .  A
N522        N523   1.323       .  A
N523        C524   1.352       .  A
C524        C525   1.391       .  A
C524        H527   1.082       .  S
C525        C526   1.379       .  A
C526        H528   1.082       .  S
N529        C533   1.347       .  A
N529        N530   1.321       .  A
N529       Cu537   2.077       .  S
N530        C531   1.345       .  A
N530       Cu536   2.076       .  S
C531        C532   1.387       .  A
C531        H534   1.082       .  S
C532       C1734   1.495       .  S
C532        C533   1.388       .  A
C533        H535   1.082       .  S
Cu536       N539   2.077       .  S
Cu537       N547   2.078       .  S
Cu538       N540   2.078       .  S
Cu538       N546   2.078       .  S
N539        C543   1.343       .  A
N539        N540   1.323       .  A
N540        C541   1.349       .  A
C541        C542   1.384       .  A
C541        H544   1.082       .  S
C542        C700   1.472       .  S
C542        C543   1.382       .  A
C543        H545   1.082       .  S
N546        C550   1.346       .  A
N546        N547   1.324       .  A
N547        C548   1.344       .  A
C548        C549   1.382       .  A
C548        H551   1.082       .  S
C549        C597   1.470       .  S
C549        C550   1.383       .  A
C550        H552   1.082       .  S
N553        C557   1.347       .  A
N553        N554   1.325       .  A
N553       Cu561   2.102       .  S
N554        C555   1.350       .  A
N554       Cu560   2.083       .  S
C555        C556   1.384       .  A
C555        H558   1.082       .  S
C556        C676   1.480       .  S
C556        C557   1.387       .  A
C557        H559   1.082       .  S
Cu560       N563   2.082       .  S
Cu561       N571   2.102       .  S
Cu562       N564   2.068       .  S
Cu562       N570   2.068       .  S
N563        C567   1.348       .  A
N563        N564   1.323       .  A
N564        C565   1.342       .  A
C565        C566   1.380       .  A
C565        H568   1.082       .  S
C566        C580   1.471       .  S
C566        C567   1.385       .  A
C567        H569   1.082       .  S
N570        C574   1.345       .  A
N570        N571   1.321       .  A
N571        C572   1.350       .  A
C572        C573   1.392       .  A
C572        H575   1.082       .  S
C573       C1468   1.500       .  S
C573        C574   1.385       .  A
C574        H576   1.082       .  S
N577        C581   1.347       .  A
N577        N578   1.323       .  A
N577       Cu585   2.078       .  S
N578        C579   1.343       .  A
N578       Cu584   2.075       .  S
C579        C580   1.382       .  A
C579        H582   1.082       .  S
C580        C581   1.383       .  A
C581        H583   1.082       .  S
Cu584       N587   2.074       .  S
Cu585       N595   2.078       .  S
Cu586       N588   2.065       .  S
Cu586       N594   2.065       .  S
N587        C591   1.346       .  A
N587        N588   1.321       .  A
N588        C589   1.343       .  A
C589        C590   1.381       .  A
C589        H592   1.082       .  S
C590        C591   1.385       .  A
C591        H593   1.082       .  S
N594        C598   1.343       .  A
N594        N595   1.322       .  A
N595        C596   1.347       .  A
C596        C597   1.385       .  A
C596        H599   1.082       .  S
C597        C598   1.381       .  A
C598        H600   1.082       .  S
N601        C605   1.348       .  A
N601        N602   1.324       .  A
N601       Cu609   2.085       .  S
N602        C603   1.345       .  A
N602       Cu608   2.080       .  S
C603        C604   1.384       .  A
C603        H606   1.081       .  S
C604        C717   1.475       .  S
C604        C605   1.385       .  A
C605        H607   1.082       .  S
Cu608       N611   2.080       .  S
Cu609       N619   2.084       .  S
Cu610       N612   2.089       .  S
Cu610       N618   2.090       .  S
N611        C615   1.347       .  A
N611        N612   1.322       .  A
N612        C613   1.348       .  A
C613        C614   1.388       .  A
C613        H616   1.082       .  S
C614       C1874   1.497       .  S
C614        C615   1.386       .  A
C615        H617   1.082       .  S
N618        C622   1.345       .  A
N618        N619   1.324       .  A
N619        C620   1.350       .  A
C620        C621   1.385       .  A
C620        H623   1.082       .  S
C621        C669   1.479       .  S
C621        C622   1.385       .  A
C622        H624   1.082       .  S
N625        C629   1.347       .  A
N625        N626   1.323       .  A
N625       Cu633   2.092       .  S
N626        C627   1.348       .  A
N626       Cu632   2.080       .  S
C627        C628   1.384       .  A
C627        H630   1.082       .  S
C628        C693   1.479       .  S
C628        C629   1.387       .  A
C629        H631   1.082       .  S
Cu632       N635   2.080       .  S
Cu633       N643   2.091       .  S
Cu634       N636   2.095       .  S
Cu634       N642   2.095       .  S
N635        C639   1.349       .  A
N635        N636   1.324       .  A
N636        C637   1.347       .  A
C637        C638   1.387       .  A
C637        H640   1.082       .  S
C638        C652   1.479       .  S
C638        C639   1.384       .  A
C639        H641   1.082       .  S
N642        C646   1.350       .  A
N642        N643   1.323       .  A
N643        C644   1.348       .  A
C644        C645   1.387       .  A
C644        H647   1.082       .  S
C645       C1342   1.499       .  S
C645        C646   1.389       .  A
C646        H648   1.082       .  S
N649        C653   1.352       .  A
N649        N650   1.324       .  A
N649       Cu657   2.110       .  S
N650        C651   1.343       .  A
N650       Cu656   2.068       .  S
C651        C652   1.380       .  A
C651        H654   1.082       .  S
C652        C653   1.391       .  A
C653        H655   1.082       .  S
Cu656       N659   2.067       .  S
Cu657       N667   2.110       .  S
Cu658       N660   2.063       .  S
Cu658       N666   2.064       .  S
N659        C663   1.344       .  A
N659        N660   1.320       .  A
N660        C661   1.344       .  A
C661        C662   1.383       .  A
C661        H664   1.082       .  S
C662        C663   1.384       .  A
C663        H665   1.082       .  S
N666        C670   1.342       .  A
N666        N667   1.324       .  A
N667        C668   1.353       .  A
C668        C669   1.391       .  A
C668        H671   1.082       .  S
C669        C670   1.379       .  A
C670        H672   1.082       .  S
N673        C677   1.353       .  A
N673        N674   1.324       .  A
N673       Cu681   2.110       .  S
N674        C675   1.343       .  A
N674       Cu680   2.067       .  S
C675        C676   1.379       .  A
C675        H678   1.082       .  S
C676        C677   1.392       .  A
C677        H679   1.082       .  S
Cu680       N683   2.067       .  S
Cu681       N691   2.110       .  S
Cu682       N684   2.069       .  S
Cu682       N690   2.070       .  S
N683        C687   1.345       .  A
N683        N684   1.320       .  A
N684        C685   1.345       .  A
C685        C686   1.384       .  A
C685        H688   1.082       .  S
C686        C878   1.471       .  S
C686        C687   1.383       .  A
C687        H689   1.082       .  S
N690        C694   1.344       .  A
N690        N691   1.324       .  A
N691        C692   1.352       .  A
C692        C693   1.390       .  A
C692        H695   1.081       .  S
C693        C694   1.380       .  A
C694        H696   1.082       .  S
N697        C701   1.350       .  A
N697        N698   1.323       .  A
N697       Cu705   2.091       .  S
N698        C699   1.342       .  A
N698       Cu704   2.067       .  S
C699        C700   1.380       .  A
C699        H702   1.082       .  S
C700        C701   1.387       .  A
C701        H703   1.081       .  S
Cu704       N707   2.066       .  S
Cu705       N715   2.092       .  S
Cu706       N708   2.072       .  S
Cu706       N714   2.073       .  S
N707        C711   1.345       .  A
N707        N708   1.321       .  A
N708        C709   1.344       .  A
C709        C710   1.384       .  A
C709        H712   1.082       .  S
C710        C830   1.470       .  S
C710        C711   1.383       .  A
C711        H713   1.082       .  S
N714        C718   1.344       .  A
N714        N715   1.323       .  A
N715        C716   1.349       .  A
C716        C717   1.386       .  A
C716        H719   1.081       .  S
C717        C718   1.382       .  A
C718        H720   1.082       .  S
N721        C725   1.347       .  A
N721        N722   1.321       .  A
N721       Cu729   2.081       .  S
N722        C723   1.347       .  A
N722       Cu728   2.077       .  S
C723        C724   1.386       .  A
C723        H726   1.082       .  S
C724       C1538   1.492       .  S
C724        C725   1.386       .  A
C725        H727   1.082       .  S
Cu728       N731   2.077       .  S
Cu729       N739   2.082       .  S
Cu730       N732   2.082       .  S
Cu730       N738   2.083       .  S
N731        C735   1.343       .  A
N731        N732   1.324       .  A
N732        C733   1.348       .  A
C733        C734   1.384       .  A
C733        H736   1.082       .  S
C734        C909   1.473       .  S
C734        C735   1.382       .  A
C735        H737   1.081       .  S
N738        C742   1.349       .  A
N738        N739   1.324       .  A
N739        C740   1.344       .  A
C740        C741   1.384       .  A
C740        H743   1.082       .  S
C741        C885   1.475       .  S
C741        C742   1.385       .  A
C742        H744   1.082       .  S
N745        C749   1.348       .  A
N745        N746   1.322       .  A
N745       Cu753   2.092       .  S
N746        C747   1.349       .  A
N746       Cu752   2.093       .  S
C747        C748   1.392       .  A
C747        H750   1.082       .  S
C748       C1423   1.509       .  S
C748        C749   1.391       .  A
C749        H751   1.081       .  S
Cu752       N755   2.094       .  S
Cu753       N763   2.092       .  S
Cu754       N756   2.074       .  S
Cu754       N762   2.074       .  S
N755        C759   1.346       .  A
N755        N756   1.324       .  A
N756        C757   1.348       .  A
C757        C758   1.382       .  A
C757        H760   1.083       .  S
C758        C844   1.476       .  S
C758        C759   1.386       .  A
C759        H761   1.081       .  S
N762        C766   1.348       .  A
N762        N763   1.323       .  A
N763        C764   1.346       .  A
C764        C765   1.386       .  A
C764        H767   1.082       .  S
C765        C868   1.476       .  S
C765        C766   1.383       .  A
C766        H768   1.082       .  S
N769        C773   1.344       .  A
N769        N770   1.323       .  A
N769       Cu777   2.083       .  S
N770        C771   1.349       .  A
N770       Cu776   2.081       .  S
C771        C772   1.384       .  A
C771        H774   1.082       .  S
C772        C861   1.476       .  S
C772        C773   1.384       .  A
C773        H775   1.082       .  S
Cu776       N779   2.081       .  S
Cu777       N787   2.082       .  S
Cu778       N780   2.074       .  S
Cu778       N786   2.073       .  S
N779        C783   1.347       .  A
N779        N780   1.323       .  A
N780        C781   1.344       .  A
C781        C782   1.383       .  A
C781        H784   1.082       .  S
C782        C820   1.473       .  S
C782        C783   1.384       .  A
C783        H785   1.082       .  S
N786        C790   1.345       .  A
N786        N787   1.321       .  A
N787        C788   1.347       .  A
C788        C789   1.387       .  A
C788        H791   1.082       .  S
C789       C1706   1.494       .  S
C789        C790   1.386       .  A
C790        H792   1.082       .  S
N793        C797   1.342       .  A
N793        N794   1.323       .  A
N793       Cu801   2.070       .  S
N794        C795   1.348       .  A
N794       Cu800   2.080       .  S
C795        C796   1.385       .  A
C795        H798   1.082       .  S
C796        C892   1.471       .  S
C796        C797   1.381       .  A
C797        H799   1.082       .  S
Cu800       N803   2.080       .  S
Cu801       N811   2.069       .  S
Cu802       N804   2.081       .  S
Cu802       N810   2.081       .  S
N803        C807   1.348       .  A
N803        N804   1.324       .  A
N804        C805   1.344       .  A
C805        C806   1.383       .  A
C805        H808   1.082       .  S
C806        C837   1.472       .  S
C806        C807   1.383       .  A
C807        H809   1.082       .  S
N810        C814   1.347       .  A
N810        N811   1.321       .  A
N811        C812   1.345       .  A
C812        C813   1.385       .  A
C812        H815   1.082       .  S
C813       C1930   1.493       .  S
C813        C814   1.388       .  A
C814        H816   1.082       .  S
N817        C821   1.348       .  A
N817        N818   1.324       .  A
N817       Cu825   2.089       .  S
N818        C819   1.343       .  A
N818       Cu824   2.071       .  S
C819        C820   1.381       .  A
C819        H822   1.082       .  S
C820        C821   1.385       .  A
C821        H823   1.082       .  S
Cu824       N827   2.070       .  S
Cu825       N835   2.088       .  S
Cu826       N828   2.063       .  S
Cu826       N834   2.063       .  S
N827        C831   1.345       .  A
N827        N828   1.320       .  A
N828        C829   1.343       .  A
C829        C830   1.382       .  A
C829        H832   1.082       .  S
C830        C831   1.385       .  A
C831        H833   1.082       .  S
N834        C838   1.341       .  A
N834        N835   1.323       .  A
N835        C836   1.350       .  A
C836        C837   1.387       .  A
C836        H839   1.081       .  S
C837        C838   1.379       .  A
C838        H840   1.082       .  S
N841        C845   1.351       .  A
N841        N842   1.324       .  A
N841       Cu849   2.103       .  S
N842        C843   1.342       .  A
N842       Cu848   2.065       .  S
C843        C844   1.379       .  A
C843        H846   1.082       .  S
C844        C845   1.390       .  A
C845        H847   1.081       .  S
Cu848       N851   2.065       .  S
Cu849       N859   2.102       .  S
Cu850       N852   2.068       .  S
Cu850       N858   2.068       .  S
N851        C855   1.345       .  A
N851        N852   1.320       .  A
N852        C853   1.345       .  A
C853        C854   1.383   1_545  A
C853        H856   1.085   1_545  S
C854       C1070   1.471       .  S
C854        C855   1.384   1_565  A
C855        H857   1.080   1_545  S
N858        C862   1.342       .  A
N858        N859   1.324       .  A
N859        C860   1.352       .  A
C860        C861   1.389       .  A
C860        H863   1.082       .  S
C861        C862   1.379       .  A
C862        H864   1.082       .  S
N865        C869   1.351       .  A
N865        N866   1.324       .  A
N865       Cu873   2.101       .  S
N866        C867   1.343       .  A
N866       Cu872   2.068       .  S
C867        C868   1.379       .  A
C867        H870   1.082       .  S
C868        C869   1.389       .  A
C869        H871   1.082       .  S
Cu872       N875   2.067       .  S
Cu873       N883   2.100       .  S
Cu874       N876   2.068       .  S
Cu874       N882   2.068       .  S
N875        C879   1.345       .  A
N875        N876   1.320       .  A
N876        C877   1.345       .  A
C877        C878   1.384   1_455  A
C877        H880   1.082   1_455  S
C878        C879   1.383   1_655  A
C879        H881   1.082       .  S
N882        C886   1.342       .  A
N882        N883   1.324       .  A
N883        C884   1.351       .  A
C884        C885   1.388       .  A
C884        H887   1.082       .  S
C885        C886   1.380       .  A
C886        H888   1.082       .  S
N889        C893   1.349       .  A
N889        N890   1.323       .  A
N889       Cu897   2.086       .  S
N890        C891   1.342       .  A
N890       Cu896   2.069       .  S
C891        C892   1.380       .  A
C891        H894   1.082       .  S
C892        C893   1.385       .  A
C893        H895   1.081       .  S
Cu896       N899   2.068       .  S
Cu897       N907   2.086       .  S
Cu898       N900   2.068       .  S
Cu898       N906   2.069       .  S
N899        C903   1.345       .  A
N899        N900   1.320       .  A
N900        C901   1.345       .  A
C901        C902   1.383       .  A
C901        H904   1.082       .  S
C902        C998   1.470       .  S
C902        C903   1.383       .  A
C903        H905   1.082       .  S
N906        C910   1.342       .  A
N906        N907   1.323       .  A
N907        C908   1.349       .  A
C908        C909   1.386       .  A
C908        H911   1.081       .  S
C909        C910   1.380       .  A
C910        H912   1.082       .  S
N913        C917   1.347       .  A
N913        N914   1.322       .  A
N913       Cu921   2.082       .  S
N914        C915   1.349       .  A
N914       Cu920   2.093       .  S
C915        C916   1.388       .  A
C915        H918   1.082       .  S
C916       C1636   1.496       .  S
C916        C917   1.386       .  A
C917        H919   1.082       .  S
Cu920       N923   2.094       .  S
Cu921       N931   2.082       .  S
Cu922       N924   2.094       .  S
Cu922       N930   2.093       .  S
N923        C927   1.347       .  A
N923        N924   1.324       .  A
N924        C925   1.351       .  A
C925        C926   1.387       .  A
C925        H928   1.082       .  S
C926       C1029   1.483       .  S
C926        C927   1.386       .  A
C927        H929   1.082       .  S
N930        C934   1.350       .  A
N930        N931   1.324       .  A
N931        C932   1.345       .  A
C932        C933   1.384       .  A
C932        H935   1.082       .  S
C933       C1077   1.479       .  S
C933        C934   1.387       .  A
C934        H936   1.082       .  S
N937        C941   1.347       .  A
N937        N938   1.323       .  A
N937       Cu945   2.076       .  S
N938        C939   1.342       .  A
N938       Cu944   2.070       .  S
C939        C940   1.382       .  A
C939        H942   1.081       .  S
C940       C1101   1.470       .  S
C940        C941   1.384       .  A
C941        H943   1.083       .  S
Cu944       N947   2.070       .  S
Cu945       N955   2.076       .  S
Cu946       N948   2.085       .  S
Cu946       N954   2.086       .  S
N947        C951   1.345       .  A
N947        N948   1.321       .  A
N948        C949   1.347       .  A
C949        C950   1.388       .  A
C949        H952   1.082       .  S
C950       C1899   1.495       .  S
C950        C951   1.386       .  A
C951        H953   1.082       .  S
N954        C958   1.344       .  A
N954        N955   1.324       .  A
N955        C956   1.348       .  A
C956        C957   1.383       .  A
C956        H959   1.082       .  S
C957       C1005   1.473       .  S
C957        C958   1.384       .  A
C958        H960   1.082       .  S
N961        C965   1.350       .  A
N961        N962   1.323       .  A
N961       Cu969   2.102       .  S
N962        C963   1.348       .  A
N962       Cu968   2.086       .  S
C963        C964   1.387       .  A
C963        H966   1.082       .  S
C964       C1566   1.500       .  S
C964        C965   1.390       .  A
C965        H967   1.082       .  S
Cu968       N971   2.086       .  S
Cu969       N979   2.103       .  S
Cu970       N972   2.074       .  S
Cu970       N978   2.074       .  S
N971        C975   1.345       .  A
N971        N972   1.322       .  A
N972        C973   1.348       .  A
C973        C974   1.384       .  A
C973        H976   1.082       .  S
C974        C988   1.477       .  S
C974        C975   1.386       .  A
C975        H977   1.082       .  S
N978        C982   1.347       .  A
N978        N979   1.324       .  A
N979        C980   1.348       .  A
C980        C981   1.389       .  A
C980        H983   1.082       .  S
C981       C1012   1.479       .  S
C981        C982   1.382       .  A
C982        H984   1.082       .  S
N985        C989   1.351       .  A
N985        N986   1.324       .  A
N985       Cu993   2.101       .  S
N986        C987   1.342       .  A
N986       Cu992   2.067       .  S
C987        C988   1.379       .  A
C987        H990   1.082       .  S
C988        C989   1.389       .  A
C989        H991   1.082       .  S
Cu992       N995   2.066       .  S
Cu993      N1003   2.101       .  S
Cu994       N996   2.064       .  S
Cu994      N1002   2.065       .  S
N995        C999   1.344       .  A
N995        N996   1.320       .  A
N996        C997   1.344       .  A
C997        C998   1.383       .  A
C997       H1000   1.082       .  S
C998        C999   1.383       .  A
C999       H1001   1.082       .  S
N1002      C1006   1.341       .  A
N1002      N1003   1.324       .  A
N1003      C1004   1.351       .  A
C1004      C1005   1.388       .  A
C1004      H1007   1.082       .  S
C1005      C1006   1.378       .  A
C1006      H1008   1.082       .  S
N1009      C1013   1.352       .  A
N1009      N1010   1.323       .  A
N1009     Cu1017   2.111       .  S
N1010      C1011   1.343       .  A
N1010     Cu1016   2.061       .  S
C1011      C1012   1.379       .  A
C1011      H1014   1.082       .  S
C1012      C1013   1.392       .  A
C1013      H1015   1.082       .  S
Cu1016     N1019   2.061       .  S
Cu1017     N1027   2.112       .  S
Cu1018     N1020   2.080       .  S
Cu1018     N1026   2.081       .  S
N1019      C1023   1.344       .  A
N1019      N1020   1.321       .  A
N1020      C1021   1.346       .  A
C1021      C1022   1.386       .  A
C1021      H1024   1.082       .  S
C1022      C1166   1.472   1_556  S
C1022      C1023   1.382       .  A
C1023      H1025   1.082       .  S
N1026      C1030   1.345       .  A
N1026      N1027   1.325       .  A
N1027      C1028   1.353       .  A
C1028      C1029   1.390       .  A
C1028      H1031   1.082       .  S
C1029      C1030   1.382       .  A
C1030      H1032   1.082       .  S
N1033      C1037   1.347       .  A
N1033      N1034   1.322       .  A
N1033     Cu1041   2.082       .  S
N1034      C1035   1.347       .  A
N1034     Cu1040   2.087       .  S
C1035      C1036   1.388       .  A
C1035      H1038   1.082       .  S
C1036      C1398   1.500       .  S
C1036      C1037   1.388       .  A
C1037      H1039   1.082       .  S
Cu1040     N1043   2.087       .  S
Cu1041     N1051   2.082       .  S
Cu1042     N1044   2.072       .  S
Cu1042     N1050   2.072       .  S
N1043      C1047   1.345       .  A
N1043      N1044   1.323       .  A
N1044      C1045   1.348       .  A
C1045      C1046   1.383       .  A
C1045      H1048   1.082       .  S
C1046      C1060   1.475       .  S
C1046      C1047   1.385       .  A
C1047      H1049   1.082       .  S
N1050      C1054   1.345       .  A
N1050      N1051   1.323       .  A
N1051      C1052   1.345       .  A
C1052      C1053   1.384       .  A
C1052      H1055   1.082       .  S
C1053      C1084   1.471       .  S
C1053      C1054   1.382       .  A
C1054      H1056   1.082       .  S
N1057      C1061   1.351       .  A
N1057      N1058   1.323       .  A
N1057     Cu1065   2.100       .  S
N1058      C1059   1.342       .  A
N1058     Cu1064   2.065       .  S
C1059      C1060   1.379       .  A
C1059      H1062   1.082       .  S
C1060      C1061   1.389       .  A
C1061      H1063   1.082       .  S
Cu1064     N1067   2.065       .  S
Cu1065     N1075   2.100       .  S
Cu1066     N1068   2.074       .  S
Cu1066     N1074   2.076       .  S
N1067      C1071   1.344       .  A
N1067      N1068   1.321       .  A
N1068      C1069   1.346       .  A
C1069      C1070   1.385       .  A
C1069      H1072   1.080       .  S
C1070      C1071   1.382       .  A
C1071      H1073   1.085       .  S
N1074      C1078   1.344       .  A
N1074      N1075   1.324       .  A
N1075      C1076   1.351       .  A
C1076      C1077   1.388       .  A
C1076      H1079   1.082       .  S
C1077      C1078   1.382       .  A
C1078      H1080   1.082       .  S
N1081      C1085   1.347       .  A
N1081      N1082   1.323       .  A
N1081     Cu1089   2.085       .  S
N1082      C1083   1.343       .  A
N1082     Cu1088   2.065       .  S
C1083      C1084   1.380       .  A
C1083      H1086   1.082       .  S
C1084      C1085   1.386       .  A
C1085      H1087   1.082       .  S
Cu1088     N1091   2.064       .  S
Cu1089     N1099   2.084       .  S
Cu1090     N1092   2.063       .  S
Cu1090     N1098   2.063       .  S
N1091      C1095   1.343       .  A
N1091      N1092   1.320       .  A
N1092      C1093   1.344       .  A
C1093      C1094   1.382       .  A
C1093      H1096   1.082       .  S
C1094      C1238   1.468       .  S
C1094      C1095   1.383       .  A
C1095      H1097   1.082       .  S
N1098      C1102   1.341       .  A
N1098      N1099   1.323       .  A
N1099      C1100   1.349       .  A
C1100      C1101   1.386       .  A
C1100      H1103   1.081       .  S
C1101      C1102   1.379       .  A
C1102      H1104   1.082       .  S
N1105      C1109   1.345       .  A
N1105      N1106   1.324       .  A
N1105     Cu1113   2.088       .  S
N1106      C1107   1.349       .  A
N1106     Cu1112   2.086       .  S
C1107      C1108   1.385       .  A
C1107      H1110   1.082       .  S
C1108      C1156   1.477       .  S
C1108      C1109   1.385       .  A
C1109      H1111   1.082       .  S
Cu1112     N1115   2.086       .  S
Cu1113     N1123   2.087       .  S
Cu1114     N1116   2.090       .  S
Cu1114     N1122   2.089       .  S
N1115      C1119   1.350       .  A
N1115      N1116   1.324       .  A
N1116      C1117   1.345       .  A
C1117      C1118   1.385       .  A
C1117      H1120   1.082       .  S
C1118      C1276   1.479       .  S
C1118      C1119   1.386       .  A
C1119      H1121   1.082       .  S
N1122      C1126   1.349       .  A
N1122      N1123   1.321       .  A
N1123      C1124   1.348       .  A
C1124      C1125   1.389       .  A
C1124      H1127   1.082       .  S
C1125      C1650   1.503       .  S
C1125      C1126   1.390       .  A
C1126      H1128   1.082       .  S
N1129      C1133   1.347       .  A
N1129      N1130   1.321       .  A
N1129     Cu1137   2.083       .  S
N1130      C1131   1.347       .  A
N1130     Cu1136   2.084       .  S
C1131      C1132   1.389       .  A
C1131      H1134   1.082       .  S
C1132      C1591   1.501       .  S
C1132      C1133   1.389       .  A
C1133      H1135   1.082       .  S
Cu1136     N1139   2.084       .  S
Cu1137     N1147   2.084       .  S
Cu1138     N1140   2.081       .  S
Cu1138     N1146   2.082       .  S
N1139      C1143   1.345       .  A
N1139      N1140   1.324       .  A
N1140      C1141   1.347       .  A
C1141      C1142   1.383       .  A
C1141      H1144   1.082       .  S
C1142      C1269   1.473       .  S
C1142      C1143   1.384       .  A
C1143      H1145   1.082       .  S
N1146      C1150   1.349       .  A
N1146      N1147   1.323       .  A
N1147      C1148   1.344       .  A
C1148      C1149   1.384       .  A
C1148      H1151   1.082       .  S
C1149      C1173   1.478       .  S
C1149      C1150   1.386       .  A
C1150      H1152   1.082       .  S
N1153      C1157   1.351       .  A
N1153      N1154   1.323       .  A
N1153     Cu1161   2.101       .  S
N1154      C1155   1.342       .  A
N1154     Cu1160   2.064       .  S
C1155      C1156   1.380       .  A
C1155      H1158   1.082       .  S
C1156      C1157   1.390       .  A
C1157      H1159   1.082       .  S
Cu1160     N1163   2.064       .  S
Cu1161     N1171   2.101       .  S
Cu1162     N1164   2.077       .  S
Cu1162     N1170   2.077       .  S
N1163      C1167   1.344       .  A
N1163      N1164   1.320       .  A
N1164      C1165   1.346       .  A
C1165      C1166   1.386       .  A
C1165      H1168   1.082       .  S
C1166      C1167   1.382       .  A
C1167      H1169   1.082       .  S
N1170      C1174   1.343       .  A
N1170      N1171   1.325       .  A
N1171      C1172   1.351       .  A
C1172      C1173   1.388       .  A
C1172      H1175   1.082       .  S
C1173      C1174   1.381       .  A
C1174      H1176   1.082       .  S
N1177      C1181   1.345       .  A
N1177      N1178   1.323       .  A
N1177     Cu1185   2.087       .  S
N1178      C1179   1.349       .  A
N1178     Cu1184   2.083       .  S
C1179      C1180   1.385       .  A
C1179      H1182   1.082       .  S
C1180      C1293   1.478       .  S
C1180      C1181   1.385       .  A
C1181      H1183   1.082       .  S
Cu1184     N1187   2.083       .  S
Cu1185     N1195   2.086       .  S
Cu1186     N1188   2.095       .  S
Cu1186     N1194   2.094       .  S
N1187      C1191   1.349       .  A
N1187      N1188   1.324       .  A
N1188      C1189   1.347       .  A
C1189      C1190   1.386       .  A
C1189      H1192   1.082       .  S
C1190      C1228   1.479       .  S
C1190      C1191   1.384       .  A
C1191      H1193   1.082       .  S
N1194      C1198   1.349       .  A
N1194      N1195   1.323       .  A
N1195      C1196   1.348       .  A
C1196      C1197   1.386       .  A
C1196      H1199   1.082       .  S
C1197      C1804   1.496       .  S
C1197      C1198   1.387       .  A
C1198      H1200   1.082       .  S
N1201      C1205   1.347       .  A
N1201      N1202   1.324       .  A
N1201     Cu1209   2.072       .  S
N1202      C1203   1.346       .  A
N1202     Cu1208   2.097       .  S
C1203      C1204   1.387       .  A
C1203      H1206   1.082       .  S
C1204      C1245   1.477       .  S
C1204      C1205   1.382       .  A
C1205      H1207   1.082       .  S
Cu1208     N1211   2.096       .  S
Cu1209     N1219   2.072       .  S
Cu1210     N1212   2.078       .  S
Cu1210     N1218   2.078       .  S
N1211      C1215   1.349       .  A
N1211      N1212   1.322       .  A
N1212      C1213   1.347       .  A
C1213      C1214   1.387       .  A
C1213      H1216   1.082       .  S
C1214      C1367   1.500       .  S
C1214      C1215   1.390       .  A
C1215      H1217   1.082       .  S
N1218      C1222   1.344       .  A
N1218      N1219   1.323       .  A
N1219      C1220   1.346       .  A
C1220      C1221   1.383       .  A
C1220      H1223   1.082       .  S
C1221      C1252   1.472       .  S
C1221      C1222   1.384       .  A
C1222      H1224   1.082       .  S
N1225      C1229   1.352       .  A
N1225      N1226   1.325       .  A
N1225     Cu1233   2.110       .  S
N1226      C1227   1.344       .  A
N1226     Cu1232   2.070       .  S
C1227      C1228   1.380       .  A
C1227      H1230   1.082       .  S
C1228      C1229   1.390       .  A
C1229      H1231   1.082       .  S
Cu1232     N1235   2.069       .  S
Cu1233     N1243   2.109       .  S
Cu1234     N1236   2.058       .  S
Cu1234     N1242   2.059       .  S
N1235      C1239   1.345       .  A
N1235      N1236   1.320       .  A
N1236      C1237   1.342       .  A
C1237      C1238   1.381       .  A
C1237      H1240   1.082       .  S
C1238      C1239   1.384       .  A
C1239      H1241   1.082       .  S
N1242      C1246   1.342       .  A
N1242      N1243   1.323       .  A
N1243      C1244   1.352       .  A
C1244      C1245   1.391       .  A
C1244      H1247   1.081       .  S
C1245      C1246   1.378       .  A
C1246      H1248   1.082       .  S
N1249      C1253   1.348       .  A
N1249      N1250   1.323       .  A
N1249     Cu1257   2.089       .  S
N1250      C1251   1.342       .  A
N1250     Cu1256   2.061       .  S
C1251      C1252   1.379       .  A
C1251      H1254   1.082       .  S
C1252      C1253   1.387       .  A
C1253      H1255   1.082       .  S
Cu1256     N1259   2.061       .  S
Cu1257     N1267   2.089       .  S
Cu1258     N1260   2.070       .  S
Cu1258     N1266   2.070       .  S
N1259      C1263   1.345       .  A
N1259      N1260   1.321       .  A
N1260      C1261   1.343       .  A
C1261      C1262   1.383   1_455  A
C1261      H1264   1.082   1_455  S
C1262      C1263   1.382   1_655  A
C1263      H1265   1.082       .  S
N1266      C1270   1.344       .  A
N1266      N1267   1.323       .  A
N1267      C1268   1.348       .  A
C1268      C1269   1.386       .  A
C1268      H1271   1.082       .  S
C1269      C1270   1.381       .  A
C1270      H1272   1.082       .  S
N1273      C1277   1.352       .  A
N1273      N1274   1.325       .  A
N1273     Cu1281   2.104       .  S
N1274      C1275   1.344       .  A
N1274     Cu1280   2.077       .  S
C1275      C1276   1.381       .  A
C1275      H1278   1.082       .  S
C1276      C1277   1.389       .  A
C1277      H1279   1.082       .  S
Cu1280     N1283   2.077       .  S
Cu1281     N1291   2.104       .  S
Cu1282     N1284   2.064       .  S
Cu1282     N1290   2.065       .  S
N1283      C1287   1.346       .  A
N1283      N1284   1.320       .  A
N1284      C1285   1.344       .  A
C1285      C1286   1.382       .  A
C1285      H1288   1.082       .  S
C1286      C1287   1.386       .  A
C1287      H1289   1.082       .  S
N1290      C1294   1.342       .  A
N1290      N1291   1.323       .  A
N1291      C1292   1.352       .  A
C1292      C1293   1.390       .  A
C1292      H1295   1.082       .  S
C1293      C1294   1.380       .  A
C1294      H1296   1.082       .  S
C1297      C1298   1.414       .  A
C1297      C1302   1.415       .  A
C1298      C1299   1.414       .  A
C1298      C1303   1.451       .  S
C1299      C1300   1.415       .  A
C1299      C1306   1.451       .  S
C1300      C1301   1.414       .  A
C1301      C1302   1.414       .  A
C1301      C1304   1.451       .  S
C1302      C1305   1.451       .  S
C1303      N1310   1.157       .  T
C1304      N1309   1.157       .  T
C1305      N1307   1.157       .  T
C1306      N1308   1.157       .  T
C1311      C1312   1.413       .  A
C1311      C1316   1.413       .  A
C1312      C1313   1.415       .  A
C1312      C1317   1.451       .  S
C1313      C1314   1.416       .  A
C1313      C1320   1.451       .  S
C1314      C1315   1.417       .  A
C1315      C1316   1.414       .  A
C1315      C1318   1.451       .  S
C1316      C1319   1.452       .  S
C1317      N1324   1.157       .  T
C1318      N1323   1.157       .  T
C1319      N1321   1.157       .  T
C1320      N1322   1.157       .  T
C1325      C1326   1.420       .  A
C1325      C1330   1.420       .  A
C1326      C1327   1.414       .  A
C1326      C1331   1.451       .  S
C1327      C1328   1.412       .  A
C1327      C1334   1.452       .  S
C1328      C1329   1.412       .  A
C1329      C1330   1.415       .  A
C1329      C1332   1.451   1_565  S
C1330      C1333   1.452       .  S
C1331      N1338   1.158       .  T
C1332      N1337   1.157       .  T
C1333      N1335   1.158       .  T
C1334      N1336   1.157       .  T
C1339      C1340   1.411       .  A
C1339      C1344   1.413       .  A
C1340      C1341   1.415       .  A
C1340      C1345   1.451       .  S
C1341      C1342   1.416       .  A
C1341      C1348   1.450       .  S
C1342      C1343   1.417       .  A
C1343      C1344   1.416       .  A
C1343      C1346   1.450       .  S
C1344      C1347   1.451       .  S
C1345      N1352   1.157       .  T
C1346      N1351   1.157       .  T
C1347      N1349   1.157       .  T
C1348      N1350   1.157       .  T
C1353      C1354   1.411       .  A
C1353      C1358   1.412       .  A
C1354      C1355   1.415       .  A
C1354      C1359   1.451       .  S
C1355      C1356   1.418       .  A
C1355      C1362   1.451       .  S
C1356      C1357   1.417       .  A
C1357      C1358   1.416       .  A
C1357      C1360   1.451       .  S
C1358      C1361   1.451       .  S
C1359      N1366   1.157       .  T
C1360      N1365   1.157       .  T
C1361      N1363   1.157       .  T
C1362      N1364   1.157       .  T
C1367      C1368   1.415       .  A
C1367      C1372   1.415       .  A
C1368      C1369   1.415       .  A
C1368      C1373   1.451       .  S
C1369      C1370   1.418       .  A
C1369      C1376   1.452       .  S
C1370      C1371   1.418       .  A
C1371      C1372   1.416       .  A
C1371      C1374   1.450       .  S
C1372      C1375   1.452       .  S
C1373      N1380   1.157       .  T
C1374      N1379   1.157       .  T
C1375      N1377   1.157       .  T
C1376      N1378   1.157       .  T
C1381      C1382   1.419       .  A
C1381      C1386   1.419       .  A
C1382      C1383   1.414       .  A
C1382      C1387   1.449       .  S
C1383      C1384   1.410       .  A
C1383      C1390   1.452       .  S
C1384      C1385   1.410       .  A
C1385      C1386   1.414       .  A
C1385      C1388   1.451       .  S
C1386      C1389   1.451   1_655  S
C1387      N1394   1.157       .  T
C1388      N1393   1.157       .  T
C1389      N1391   1.157       .  T
C1390      N1392   1.157       .  T
C1395      C1396   1.416       .  A
C1395      C1400   1.418       .  A
C1396      C1397   1.415       .  A
C1396      C1401   1.451       .  S
C1397      C1398   1.416       .  A
C1397      C1404   1.451       .  S
C1398      C1399   1.416       .  A
C1399      C1400   1.416       .  A
C1399      C1402   1.451       .  S
C1400      C1403   1.452       .  S
C1401      N1408   1.157       .  T
C1402      N1407   1.158       .  T
C1403      N1405   1.157       .  T
C1404      N1406   1.157       .  T
C1409      C1410   1.411       .  A
C1409      C1414   1.411       .  A
C1410      C1411   1.414       .  A
C1410      C1415   1.450       .  S
C1411      C1412   1.413       .  A
C1411      C1418   1.450       .  S
C1412      C1413   1.412       .  A
C1413      C1414   1.413       .  A
C1413      C1416   1.450       .  S
C1414      C1417   1.450       .  S
C1415      N1422   1.157       .  T
C1416      N1421   1.157       .  T
C1417      N1419   1.157       .  T
C1418      N1420   1.157       .  T
C1423      C1424   1.419       .  A
C1423      C1428   1.419       .  A
C1424      C1425   1.418       .  A
C1424      C1429   1.451       .  S
C1425      C1426   1.416       .  A
C1425      C1432   1.452       .  S
C1426      C1427   1.415       .  A
C1427      C1428   1.418       .  A
C1427      C1430   1.451       .  S
C1428      C1431   1.451       .  S
C1429      N1436   1.157       .  T
C1430      N1435   1.157       .  T
C1431      N1433   1.157       .  T
C1432      N1434   1.157       .  T
C1437      C1438   1.413       .  A
C1437      C1442   1.412   1_455  A
C1438      C1439   1.417   1_455  A
C1438      C1443   1.450       .  S
C1439      C1440   1.414       .  A
C1439      C1446   1.450       .  S
C1440      C1441   1.414       .  A
C1441      C1442   1.416       .  A
C1441      C1444   1.450       .  S
C1442      C1445   1.450       .  S
C1443      N1450   1.157       .  T
C1444      N1449   1.157       .  T
C1445      N1447   1.157       .  T
C1446      N1448   1.157       .  T
C1451      C1452   1.411       .  A
C1451      C1456   1.412       .  A
C1452      C1453   1.415       .  A
C1452      C1457   1.451   1_565  S
C1453      C1454   1.418       .  A
C1453      C1460   1.450       .  S
C1454      C1455   1.418       .  A
C1455      C1456   1.418       .  A
C1455      C1458   1.450       .  S
C1456      C1459   1.450       .  S
C1457      N1464   1.157       .  T
C1458      N1463   1.157       .  T
C1459      N1461   1.157       .  T
C1460      N1462   1.157       .  T
C1465      C1466   1.417       .  A
C1465      C1470   1.416       .  A
C1466      C1467   1.416       .  A
C1466      C1471   1.451       .  S
C1467      C1468   1.414       .  A
C1467      C1474   1.451       .  S
C1468      C1469   1.416       .  A
C1469      C1470   1.416       .  A
C1469      C1472   1.451       .  S
C1470      C1473   1.450       .  S
C1471      N1478   1.157       .  T
C1472      N1477   1.157       .  T
C1473      N1475   1.157       .  T
C1474      N1476   1.157       .  T
C1479      C1480   1.419       .  A
C1479      C1484   1.419       .  A
C1480      C1481   1.416       .  A
C1480      C1485   1.451       .  S
C1481      C1482   1.415       .  A
C1481      C1488   1.452       .  S
C1482      C1483   1.415       .  A
C1483      C1484   1.417       .  A
C1483      C1486   1.451       .  S
C1484      C1487   1.451       .  S
C1485      N1492   1.157       .  T
C1486      N1491   1.157       .  T
C1487      N1489   1.157       .  T
C1488      N1490   1.157       .  T
C1493      C1494   1.414       .  A
C1493      C1498   1.412       .  A
C1494      C1495   1.416   1_556  A
C1494      C1499   1.450       .  S
C1495      C1496   1.412       .  A
C1495      C1502   1.450       .  S
C1496      C1497   1.413       .  A
C1497      C1498   1.415   1_554  A
C1497      C1500   1.450       .  S
C1498      C1501   1.449       .  S
C1499      N1506   1.157       .  T
C1500      N1505   1.157       .  T
C1501      N1503   1.157       .  T
C1502      N1504   1.157       .  T
C1507      C1508   1.414       .  A
C1507      C1512   1.416       .  A
C1508      C1509   1.415       .  A
C1508      C1513   1.451       .  S
C1509      C1510   1.416       .  A
C1509      C1516   1.451       .  S
C1510      C1511   1.415       .  A
C1511      C1512   1.415       .  A
C1511      C1514   1.451       .  S
C1512      C1515   1.451       .  S
C1513      N1520   1.157       .  T
C1514      N1519   1.157       .  T
C1515      N1517   1.157       .  T
C1516      N1518   1.157       .  T
C1521      C1522   1.412       .  A
C1521      C1526   1.411       .  A
C1522      C1523   1.417       .  A
C1522      C1527   1.452       .  S
C1523      C1524   1.425       .  A
C1523      C1530   1.451       .  S
C1524      C1525   1.425       .  A
C1525      C1526   1.416       .  A
C1525      C1528   1.451       .  S
C1526      C1529   1.452       .  S
C1527      N1534   1.157       .  T
C1528      N1533   1.157       .  T
C1529      N1531   1.157       .  T
C1530      N1532   1.158       .  T
C1535      C1536   1.412       .  A
C1535      C1540   1.412       .  A
C1536      C1537   1.414       .  A
C1536      C1541   1.451       .  S
C1537      C1538   1.415       .  A
C1537      C1544   1.451       .  S
C1538      C1539   1.414       .  A
C1539      C1540   1.413       .  A
C1539      C1542   1.451       .  S
C1540      C1543   1.451       .  S
C1541      N1548   1.157       .  T
C1542      N1547   1.157       .  T
C1543      N1545   1.157       .  T
C1544      N1546   1.157       .  T
C1549      C1550   1.413       .  A
C1549      C1554   1.412       .  A
C1550      C1551   1.417       .  A
C1550      C1555   1.452       .  S
C1551      C1552   1.424       .  A
C1551      C1558   1.452       .  S
C1552      C1553   1.423       .  A
C1553      C1554   1.415       .  A
C1553      C1556   1.451       .  S
C1554      C1557   1.452   1_655  S
C1555      N1562   1.157       .  T
C1556      N1561   1.157       .  T
C1557      N1559   1.157       .  T
C1558      N1560   1.158       .  T
C1563      C1564   1.415       .  A
C1563      C1568   1.416       .  A
C1564      C1565   1.417       .  A
C1564      C1569   1.451       .  S
C1565      C1566   1.415       .  A
C1565      C1572   1.450       .  S
C1566      C1567   1.416       .  A
C1567      C1568   1.416       .  A
C1567      C1570   1.451       .  S
C1568      C1571   1.451       .  S
C1569      N1576   1.157       .  T
C1570      N1575   1.157       .  T
C1571      N1573   1.157       .  T
C1572      N1574   1.157       .  T
C1577      C1578   1.414       .  A
C1577      C1582   1.416       .  A
C1578      C1579   1.415       .  A
C1578      C1583   1.453       .  S
C1579      C1580   1.425       .  A
C1579      C1586   1.453       .  S
C1580      C1581   1.423       .  A
C1581      C1582   1.415       .  A
C1581      C1584   1.452       .  S
C1582      C1585   1.453       .  S
C1583      N1590   1.157       .  T
C1584      N1589   1.158       .  T
C1585      N1587   1.157       .  T
C1586      N1588   1.158       .  T
C1591      C1592   1.415       .  A
C1591      C1596   1.415       .  A
C1592      C1593   1.416       .  A
C1592      C1597   1.452       .  S
C1593      C1594   1.419       .  A
C1593      C1600   1.452       .  S
C1594      C1595   1.419       .  A
C1595      C1596   1.415       .  A
C1595      C1598   1.452       .  S
C1596      C1599   1.451       .  S
C1597      N1604   1.157       .  T
C1598      N1603   1.157       .  T
C1599      N1601   1.157       .  T
C1600      N1602   1.158       .  T
C1605      C1606   1.422   1_556  A
C1605      C1610   1.421       .  A
C1606      C1607   1.415       .  A
C1606      C1611   1.452   1_554  S
C1607      C1608   1.413       .  A
C1607      C1614   1.452       .  S
C1608      C1609   1.413       .  A
C1609      C1610   1.418   1_554  A
C1609      C1612   1.451       .  S
C1610      C1613   1.451       .  S
C1611      N1618   1.158       .  T
C1612      N1617   1.157       .  T
C1613      N1615   1.158       .  T
C1614      N1616   1.157       .  T
C1619      C1620   1.412       .  A
C1619      C1624   1.412       .  A
C1620      C1621   1.415       .  A
C1620      C1625   1.450       .  S
C1621      C1622   1.414   1_655  A
C1621      C1628   1.450       .  S
C1622      C1623   1.414       .  A
C1623      C1624   1.416   1_455  A
C1623      C1626   1.450       .  S
C1624      C1627   1.450       .  S
C1625      N1632   1.157       .  T
C1626      N1631   1.157       .  T
C1627      N1629   1.157       .  T
C1628      N1630   1.157       .  T
C1633      C1634   1.414       .  A
C1633      C1638   1.414       .  A
C1634      C1635   1.416       .  A
C1634      C1639   1.450       .  S
C1635      C1636   1.415       .  A
C1635      C1642   1.451       .  S
C1636      C1637   1.415       .  A
C1637      C1638   1.414       .  A
C1637      C1640   1.451       .  S
C1638      C1641   1.451       .  S
C1639      N1646   1.157       .  T
C1640      N1645   1.157       .  T
C1641      N1643   1.157       .  T
C1642      N1644   1.157       .  T
C1647      C1648   1.419       .  A
C1647      C1652   1.418       .  A
C1648      C1649   1.417       .  A
C1648      C1653   1.451       .  S
C1649      C1650   1.416       .  A
C1649      C1656   1.451       .  S
C1650      C1651   1.415       .  A
C1651      C1652   1.416       .  A
C1651      C1654   1.452       .  S
C1652      C1655   1.450       .  S
C1653      N1660   1.157       .  T
C1654      N1659   1.157       .  T
C1655      N1657   1.157       .  T
C1656      N1658   1.157       .  T
C1661      C1662   1.412       .  A
C1661      C1666   1.411       .  A
C1662      C1663   1.415   1_556  A
C1662      C1667   1.450       .  S
C1663      C1664   1.413       .  A
C1663      C1670   1.449       .  S
C1664      C1665   1.413       .  A
C1665      C1666   1.414   1_554  A
C1665      C1668   1.450       .  S
C1666      C1669   1.450       .  S
C1667      N1674   1.157       .  T
C1668      N1673   1.157       .  T
C1669      N1671   1.157       .  T
C1670      N1672   1.157       .  T
C1675      C1676   1.416       .  A
C1675      C1680   1.416       .  A
C1676      C1677   1.415       .  A
C1676      C1681   1.451       .  S
C1677      C1678   1.415       .  A
C1677      C1684   1.451       .  S
C1678      C1679   1.416       .  A
C1679      C1680   1.415       .  A
C1679      C1682   1.451       .  S
C1680      C1683   1.452       .  S
C1681      N1688   1.157       .  T
C1682      N1687   1.157       .  T
C1683      N1685   1.157       .  T
C1684      N1686   1.157       .  T
C1689      C1690   1.423       .  A
C1689      C1694   1.423       .  A
C1690      C1691   1.415       .  A
C1690      C1695   1.450       .  S
C1691      C1692   1.411       .  A
C1691      C1698   1.453       .  S
C1692      C1693   1.412       .  A
C1693      C1694   1.417       .  A
C1693      C1696   1.452       .  S
C1694      C1697   1.451       .  S
C1695      N1702   1.157       .  T
C1696      N1701   1.157       .  T
C1697      N1699   1.158       .  T
C1698      N1700   1.157       .  T
C1703      C1704   1.416       .  A
C1703      C1708   1.417       .  A
C1704      C1705   1.413       .  A
C1704      C1709   1.451       .  S
C1705      C1706   1.415       .  A
C1705      C1712   1.452       .  S
C1706      C1707   1.414       .  A
C1707      C1708   1.414       .  A
C1707      C1710   1.451       .  S
C1708      C1711   1.452       .  S
C1709      N1716   1.157       .  T
C1710      N1715   1.157       .  T
C1711      N1713   1.158       .  T
C1712      N1714   1.157       .  T
C1717      C1718   1.410   1_545  A
C1717      C1722   1.410   1_545  A
C1718      C1719   1.414       .  A
C1718      C1723   1.451   1_565  S
C1719      C1720   1.417       .  A
C1719      C1726   1.450       .  S
C1720      C1721   1.418       .  A
C1721      C1722   1.414       .  A
C1721      C1724   1.451       .  S
C1722      C1725   1.451       .  S
C1723      N1730   1.157       .  T
C1724      N1729   1.157       .  T
C1725      N1727   1.157       .  T
C1726      N1728   1.157       .  T
C1731      C1732   1.415       .  A
C1731      C1736   1.413       .  A
C1732      C1733   1.413       .  A
C1732      C1737   1.452       .  S
C1733      C1734   1.415       .  A
C1733      C1740   1.451       .  S
C1734      C1735   1.417       .  A
C1735      C1736   1.414       .  A
C1735      C1738   1.451       .  S
C1736      C1739   1.451       .  S
C1737      N1744   1.157       .  T
C1738      N1743   1.157       .  T
C1739      N1741   1.157       .  T
C1740      N1742   1.157       .  T
C1745      C1746   1.416       .  A
C1745      C1750   1.414       .  A
C1746      C1747   1.413       .  A
C1746      C1751   1.451       .  S
C1747      C1748   1.410       .  A
C1747      C1754   1.451       .  S
C1748      C1749   1.411       .  A
C1749      C1750   1.413       .  A
C1749      C1752   1.450       .  S
C1750      C1753   1.451       .  S
C1751      N1758   1.157       .  T
C1752      N1757   1.157       .  T
C1753      N1755   1.157       .  T
C1754      N1756   1.157       .  T
C1759      C1760   1.415       .  A
C1759      C1764   1.416       .  A
C1760      C1761   1.413       .  A
C1760      C1765   1.451       .  S
C1761      C1762   1.415       .  A
C1761      C1768   1.451       .  S
C1762      C1763   1.414       .  A
C1763      C1764   1.413       .  A
C1763      C1766   1.451       .  S
C1764      C1767   1.452       .  S
C1765      N1772   1.157       .  T
C1766      N1771   1.157       .  T
C1767      N1769   1.157       .  T
C1768      N1770   1.157       .  T
C1773      C1774   1.410   1_545  A
C1773      C1778   1.411   1_545  A
C1774      C1775   1.413       .  A
C1774      C1779   1.451   1_565  S
C1775      C1776   1.417       .  A
C1775      C1782   1.451       .  S
C1776      C1777   1.416       .  A
C1777      C1778   1.414       .  A
C1777      C1780   1.451       .  S
C1778      C1781   1.451       .  S
C1779      N1786   1.157       .  T
C1780      N1785   1.157       .  T
C1781      N1783   1.157       .  T
C1782      N1784   1.157       .  T
C1787      C1788   1.419       .  A
C1787      C1792   1.418       .  A
C1788      C1789   1.413   1_554  A
C1788      C1793   1.451       .  S
C1789      C1790   1.410       .  A
C1789      C1796   1.452       .  S
C1790      C1791   1.410       .  A
C1791      C1792   1.412   1_556  A
C1791      C1794   1.452       .  S
C1792      C1795   1.452       .  S
C1793      N1800   1.157       .  T
C1794      N1799   1.157       .  T
C1795      N1797   1.157       .  T
C1796      N1798   1.157       .  T
C1801      C1802   1.412       .  A
C1801      C1806   1.414       .  A
C1802      C1803   1.416       .  A
C1802      C1807   1.450       .  S
C1803      C1804   1.415       .  A
C1803      C1810   1.450       .  S
C1804      C1805   1.414       .  A
C1805      C1806   1.415       .  A
C1805      C1808   1.450       .  S
C1806      C1809   1.451       .  S
C1807      N1814   1.157       .  T
C1808      N1813   1.157       .  T
C1809      N1811   1.157       .  T
C1810      N1812   1.157       .  T
C1815      C1816   1.414       .  A
C1815      C1820   1.416       .  A
C1816      C1817   1.416       .  A
C1816      C1821   1.451       .  S
C1817      C1818   1.416       .  A
C1817      C1824   1.451       .  S
C1818      C1819   1.415       .  A
C1819      C1820   1.416       .  A
C1819      C1822   1.451       .  S
C1820      C1823   1.451       .  S
C1821      N1828   1.157       .  T
C1822      N1827   1.157       .  T
C1823      N1825   1.157       .  T
C1824      N1826   1.157       .  T
C1829      C1830   1.411       .  A
C1829      C1834   1.413       .  A
C1830      C1831   1.417       .  A
C1830      C1835   1.452       .  S
C1831      C1832   1.424       .  A
C1831      C1838   1.451       .  S
C1832      C1833   1.422       .  A
C1833      C1834   1.416       .  A
C1833      C1836   1.451       .  S
C1834      C1837   1.452       .  S
C1835      N1842   1.157       .  T
C1836      N1841   1.158       .  T
C1837      N1839   1.157       .  T
C1838      N1840   1.158       .  T
C1843      C1844   1.419       .  A
C1843      C1848   1.419       .  A
C1844      C1845   1.417       .  A
C1844      C1849   1.451       .  S
C1845      C1846   1.416       .  A
C1845      C1852   1.451       .  S
C1846      C1847   1.417       .  A
C1847      C1848   1.419       .  A
C1847      C1850   1.451       .  S
C1848      C1851   1.451       .  S
C1849      N1856   1.157       .  T
C1850      N1855   1.157       .  T
C1851      N1853   1.158       .  T
C1852      N1854   1.157       .  T
C1857      C1858   1.413       .  A
C1857      C1862   1.412       .  A
C1858      C1859   1.420       .  A
C1858      C1863   1.451       .  S
C1859      C1860   1.424       .  A
C1859      C1866   1.451       .  S
C1860      C1861   1.424       .  A
C1861      C1862   1.416       .  A
C1861      C1864   1.451       .  S
C1862      C1865   1.452       .  S
C1863      N1870   1.157       .  T
C1864      N1869   1.158       .  T
C1865      N1867   1.157       .  T
C1866      N1868   1.158       .  T
C1871      C1872   1.419       .  A
C1871      C1876   1.418       .  A
C1872      C1873   1.415       .  A
C1872      C1877   1.452       .  S
C1873      C1874   1.413       .  A
C1873      C1880   1.451       .  S
C1874      C1875   1.414       .  A
C1875      C1876   1.416       .  A
C1875      C1878   1.451       .  S
C1876      C1879   1.451       .  S
C1877      N1884   1.157       .  T
C1878      N1883   1.157       .  T
C1879      N1881   1.157       .  T
C1880      N1882   1.157       .  T
C1885      C1886   1.411       .  A
C1885      C1890   1.412       .  A
C1886      C1887   1.416       .  A
C1886      C1891   1.452       .  S
C1887      C1888   1.426       .  A
C1887      C1894   1.452       .  S
C1888      C1889   1.425       .  A
C1889      C1890   1.417       .  A
C1889      C1892   1.451       .  S
C1890      C1893   1.452       .  S
C1891      N1898   1.157       .  T
C1892      N1897   1.158       .  T
C1893      N1895   1.157       .  T
C1894      N1896   1.158       .  T
C1899      C1900   1.414       .  A
C1899      C1904   1.416       .  A
C1900      C1901   1.413       .  A
C1900      C1905   1.452       .  S
C1901      C1902   1.417       .  A
C1901      C1908   1.452       .  S
C1902      C1903   1.415       .  A
C1903      C1904   1.414       .  A
C1903      C1906   1.451       .  S
C1904      C1907   1.451       .  S
C1905      N1912   1.157       .  T
C1906      N1911   1.157       .  T
C1907      N1909   1.157       .  T
C1908      N1910   1.157       .  T
C1913      C1914   1.421       .  A
C1913      C1918   1.421       .  A
C1914      C1915   1.415       .  A
C1914      C1919   1.451       .  S
C1915      C1916   1.410       .  A
C1915      C1922   1.451       .  S
C1916      C1917   1.411       .  A
C1917      C1918   1.415       .  A
C1917      C1920   1.452       .  S
C1918      C1921   1.451       .  S
C1919      N1926   1.157       .  T
C1920      N1925   1.157       .  T
C1921      N1923   1.158       .  T
C1922      N1924   1.157       .  T
C1927      C1928   1.415       .  A
C1927      C1932   1.416       .  A
C1928      C1929   1.414       .  A
C1928      C1933   1.451       .  S
C1929      C1930   1.416       .  A
C1929      C1936   1.451       .  S
C1930      C1931   1.414       .  A
C1931      C1932   1.412       .  A
C1931      C1934   1.451       .  S
C1932      C1935   1.452       .  S
C1933      N1940   1.157       .  T
C1934      N1939   1.157       .  T
C1935      N1937   1.157       .  T
C1936      N1938   1.157       .  T
C1941      C1942   1.413       .  A
C1941      C1946   1.416       .  A
C1942      C1943   1.416       .  A
C1942      C1947   1.453       .  S
C1943      C1944   1.425       .  A
C1943      C1950   1.452       .  S
C1944      C1945   1.425       .  A
C1945      C1946   1.417       .  A
C1945      C1948   1.452       .  S
C1946      C1949   1.453       .  S
C1947      N1954   1.157       .  T
C1948      N1953   1.158       .  T
C1949      N1951   1.158       .  T
C1950      N1952   1.158       .  T
C1955      C1956   1.423       .  A
C1955      C1960   1.424       .  A
C1956      C1957   1.413       .  A
C1956      C1961   1.451       .  S
C1957      C1958   1.410       .  A
C1957      C1964   1.453       .  S
C1958      C1959   1.412       .  A
C1959      C1960   1.417       .  A
C1959      C1962   1.452       .  S
C1960      C1963   1.452       .  S
C1961      N1968   1.157       .  T
C1962      N1967   1.157       .  T
C1963      N1965   1.158       .  T
C1964      N1966   1.157       .  T
