geometry optimzed in LAMMPS
_audit_creation_date              2020-12-01 
_audit_creation_method            'lammps2cif' 
_symmetry_space_group_name_H-M    'P1' 
_symmetry_Int_Tables_number       1 
_symmetry_cell_setting            triclinic 
loop_ 
_symmetry_equiv_pos_as_xyz 
  x,y,z 
_cell_length_a                    50.76744445 
_cell_length_b                    30.059008479008806 
_cell_length_c                    29.523138124313427 
_cell_angle_alpha                 89.9017744418973 
_cell_angle_beta                  89.85834859531569 
_cell_angle_gamma                 89.95147788406715 
loop_ 
_atom_site_label 
_atom_site_type_symbol 
_atom_site_fract_x 
_atom_site_fract_y 
_atom_site_fract_z 
_atom_site_charge 
N1          N  0.00043595  0.06835587  0.75241828    -0.37000
N2          N  0.95875053  0.50357363  0.74119923    -0.57500
N3          N  0.99804884  0.43265841  0.74365136    -0.37000
N4          N  0.03968370  0.49738032  0.74971535    -0.57500
C5          C  0.98010772  0.09585519  0.74241542     0.26600
C6          C  0.02273083  0.09279565  0.75081721     0.26600
C7          C  0.97598062  0.41012460  0.73267916     0.26600
C8          C  0.01885850  0.40725790  0.73112823     0.26600
C9          C  0.94405271  0.04030794  0.74844656     0.35200
C10         C  0.94291221  0.46856316  0.74978732     0.35200
C11         C  0.05526221  0.03131928  0.76298358     0.35200
C12         C  0.05404578  0.45973364  0.75425830     0.35200
C13         C  0.98951775  0.13855285  0.73539062    -0.22300
C14         C  0.01636003  0.13674395  0.74102408    -0.22300
C15         C  0.98265027  0.36973931  0.71326688    -0.22300
C16         C  0.00974823  0.36816915  0.71166691    -0.22300
C17         C  0.91862069  0.02860822  0.76080650    -0.23300
C18         C  0.91796372  0.48302062  0.76210676    -0.23300
C19         C  0.07976645  0.01514990  0.77567569    -0.23300
C20         C  0.07886597  0.46979241  0.77075396    -0.23300
C21         C  0.95313091  0.08429326  0.74318481    -0.18700
C22         C  0.04854030  0.07690080  0.75957846    -0.18700
C23         C  0.04566353  0.41701561  0.74022119    -0.18700
C24         C  0.95009278  0.42383061  0.74300061    -0.18700
H25         H  0.97816764  0.16815245  0.72789669     0.14300
H26         H  0.02958748  0.16484781  0.73849664     0.14300
H27         H  0.96935258  0.34408880  0.70160084     0.14300
H28         H  0.02137259  0.34087763  0.69852388     0.14300
H29         H  0.90230659  0.05056670  0.76847360     0.12500
H30         H  0.90094840  0.46287665  0.77035662     0.12500
H31         H  0.09670494  0.03399242  0.78674615     0.12500
H32         H  0.09489365  0.44698493  0.77750165     0.12500
H33         H  0.99905030  0.03600115  0.76425258     0.25800
H34         H  0.99858850  0.46080456  0.76396833     0.25800
C35         C  0.16561045  0.23906456  0.70606405     0.86100
C36         C  0.15159263  0.19683239  0.72237657    -0.54100
C37         C  0.13461022  0.20238685  0.75763904     0.09100
C38         C  0.13432290  0.25062433  0.77575585     0.20000
C39         C  0.14234164  0.27135686  0.69737421    -0.54800
C40         C  0.12619692  0.27846692  0.73420356     0.09200
C41         C  0.17947989  0.25693869  0.74793792    -0.54400
C42         C  0.16339995  0.26285626  0.78430876     0.09700
H43         H  0.15236840  0.16589910  0.70334174     0.14200
H44         H  0.12214512  0.25568660  0.80644708     0.00000
H45         H  0.13749814  0.28501524  0.66465462     0.14500
H46         H  0.20037312  0.26472881  0.74869085     0.14300
C47         C  0.83394589  0.24745250  0.80277456     0.86100
C48         C  0.85099538  0.20651773  0.79171312    -0.54100
C49         C  0.86817887  0.21203965  0.75681563     0.09100
C50         C  0.86449757  0.25684492  0.73186245     0.20000
C51         C  0.85339690  0.28659513  0.80612047    -0.54800
C52         C  0.86944997  0.29132204  0.76915899     0.09200
C53         C  0.81890425  0.25513905  0.75840602    -0.54400
C54         C  0.83468179  0.26124650  0.72146424     0.09700
H55         H  0.85088165  0.17637437  0.81206318     0.14200
H56         H  0.87744118  0.26080556  0.70174312     0.00000
H57         H  0.85405893  0.30881966  0.83502947     0.14500
H58         H  0.79772411  0.25614579  0.75531643     0.14300
C59         C  0.66541148  0.02582327  0.78126983     0.86100
C60         C  0.65081981  0.06573713  0.76106829    -0.54100
C61         C  0.63466528  0.05594177  0.72561818     0.09100
C62         C  0.63591989  0.50667651  0.71155079     0.20000
C63         C  0.64370638  0.49085032  0.79089460    -0.54800
C64         C  0.62784268  0.48071026  0.75448144     0.09200
C65         C  0.68061257  0.50558654  0.74121770    -0.54400
C66         C  0.66518828  0.49585430  0.70506501     0.09700
H67         H  0.65038479  0.09798270  0.77768387     0.14200
H68         H  0.62498864  0.49884686  0.68033344     0.00000
H69         H  0.64135694  0.47579722  0.82403034     0.14500
H70         H  0.70126721  0.49666400  0.74117514     0.14300
N71         N  0.50172005  0.32535797  0.75348213    -0.37000
N72         N  0.46148253  0.25769753  0.76287844    -0.57500
N73         N  0.50190402  0.18968115  0.75076810    -0.37000
N74         N  0.54193616  0.25870660  0.74244023    -0.57500
C75         C  0.48020425  0.34946612  0.76484286     0.26600
C76         C  0.52310014  0.34950571  0.76527090     0.26600
C77         C  0.47976798  0.16466662  0.74831023     0.26600
C78         C  0.52114347  0.16738468  0.72848070     0.26600
C79         C  0.44713418  0.29251365  0.74744465     0.35200
C80         C  0.44669056  0.22096463  0.75619448     0.35200
C81         C  0.55795726  0.29451433  0.74481150     0.35200
C82         C  0.55739304  0.22317012  0.73370386     0.35200
C83         C  0.48784476  0.38917855  0.78453973    -0.22300
C84         C  0.51495023  0.38923098  0.78479734    -0.22300
C85         C  0.48458690  0.12743112  0.72194281    -0.22300
C86         C  0.51090193  0.12849163  0.71049881    -0.22300
C87         C  0.42371281  0.27771638  0.72894632    -0.23300
C88         C  0.42364597  0.23227838  0.73372528    -0.23300
C89         C  0.58378683  0.28172365  0.73681941    -0.23300
C90         C  0.58350691  0.23647422  0.73067931    -0.23300
C91         C  0.45409210  0.33754355  0.75397929    -0.18700
C92         C  0.54971782  0.33808493  0.75642101    -0.18700
C93         C  0.54812829  0.17926425  0.72692189    -0.18700
C94         C  0.45496212  0.17699299  0.76633108    -0.18700
H95         H  0.47522235  0.41567729  0.79662837     0.14300
H96         H  0.52727036  0.41582782  0.79738845     0.14300
H97         H  0.47057662  0.10223566  0.71183254     0.14300
H98         H  0.52131833  0.10367361  0.69085293     0.14300
H99         H  0.40838791  0.29756046  0.71341614     0.12500
H100        H  0.40863758  0.21001630  0.72105069     0.12500
H101        H  0.60116062  0.30253430  0.73635604     0.12500
H102        H  0.60066490  0.21606258  0.72433766     0.12500
H103        H  0.50146291  0.29671670  0.73373286     0.25800
H104        H  0.50422378  0.21786394  0.77083502     0.25800
C105        C  0.34139989  0.02575395  0.71936188     0.86100
C106        C  0.36009436  0.06128062  0.73807820    -0.54100
C107        C  0.37271464  0.05023476  0.77694565     0.09100
C108        C  0.36587594  0.50321952  0.79405707     0.20000
C109        C  0.35981341  0.48549221  0.71385526    -0.54800
C110        C  0.37218808  0.47289807  0.75298353     0.09200
C111        C  0.32303240  0.51350637  0.75862793    -0.54400
C112        C  0.33526970  0.50308350  0.79862226     0.09700
H113        H  0.36504343  0.09159470  0.71987147     0.14200
H114        H  0.37689699  0.49420238  0.82511747     0.00000
H115        H  0.36425123  0.46996183  0.68161361     0.14500
H116        H  0.30193788  0.51137249  0.75377602     0.14300
O117        O  0.27755425  0.38702572  0.95683094    -0.74800
O118        O  0.23329229  0.32480128  0.04142410    -0.74800
O119        O  0.23623913  0.32959371  0.94985151    -0.74900
O120        O  0.27403920  0.38227951  0.04826178    -0.74900
O121        O  0.24667001  0.44040260  0.04756184    -0.74900
O122        O  0.20809339  0.38624141  0.95066362    -0.74800
O123        O  0.20566869  0.38217194  0.04259113    -0.74800
O124        O  0.24959859  0.44399911  0.95601491    -0.74900
Ni125      Ni  0.25626285  0.35395565  0.99897188     1.25400
Ni126      Ni  0.22648010  0.41522246  0.99911569     1.25400
C127        C  0.27129028  0.42602196  0.94294248     0.87400
C128        C  0.21234740  0.34334557  0.05673829     0.87300
C129        C  0.21560588  0.34889979  0.93428435     0.87400
C130        C  0.26660198  0.41996353  0.06399012     0.87500
N131        N  0.00387058  0.42741187  0.28046602    -0.37000
N132        N  0.03990910  0.99997172  0.26102900    -0.57500
N133        N  0.99661542  0.06192896  0.26241525    -0.37000
N134        N  0.96051138  0.99006640  0.27859829    -0.57500
C135        C  0.02629878  0.40495314  0.27124586     0.26600
C136        C  0.98348278  0.39930216  0.27316344     0.26600
C137        C  0.01499806  0.08548005  0.23939248     0.26600
C138        C  0.97300737  0.08096331  0.25408513     0.26600
C139        C  0.05728017  0.46865482  0.27444885     0.35200
C140        C  0.05319777  0.03885694  0.25967967     0.35200
C141        C  0.94789569  0.45261766  0.29148264     0.35200
C142        C  0.94507858  0.02457622  0.29097436     0.35200
C143        C  0.02023196  0.36147807  0.25952930    -0.22300
C144        C  0.99315883  0.35802293  0.26035571    -0.22300
C145        C  0.00292003  0.11966886  0.21568649    -0.22300
C146        C  0.97630882  0.11662609  0.22469399    -0.22300
C147        C  0.08174870  0.48766706  0.28181916    -0.23300
C148        C  0.07912208  0.03232469  0.27282247    -0.23300
C149        C  0.92425462  0.46322456  0.31231761    -0.23300
C150        C  0.92289707  0.00891908  0.31348295    -0.23300
C151        C  0.05203644  0.42262589  0.27450500    -0.18700
C152        C  0.95658288  0.40936594  0.28067809    -0.18700
C153        C  0.94916383  0.06874531  0.27571266    -0.18700
C154        C  0.04249387  0.07914937  0.24320499    -0.18700
H155        H  0.03385781  0.33505579  0.25099905     0.14300
H156        H  0.98193813  0.32827561  0.25315618     0.14300
H157        H  0.01237367  0.14466724  0.19483858     0.14300
H158        H  0.96121548  0.13881695  0.21203868     0.14300
H159        H  0.09973528  0.47093548  0.29167643     0.12500
H160        H  0.09465356  0.05688100  0.27469011     0.12500
H161        H  0.90948880  0.44062493  0.32531792     0.12500
H162        H  0.90677099  0.02812962  0.32737478     0.12500
H163        H  0.00287772  0.45896247  0.29475167     0.25800
H164        H  0.00025335  0.03811770  0.28731276     0.25800
C165        C  0.16426468  0.22821750  0.28480298     0.86100
C166        C  0.17712862  0.23520184  0.23806690    -0.54100
C167        C  0.16032462  0.25082527  0.20551125     0.09100
C168        C  0.13139356  0.25478848  0.22214539     0.20000
C169        C  0.15052836  0.27265521  0.29518769    -0.54800
C170        C  0.13249418  0.28617754  0.26359676     0.09200
C171        C  0.14185120  0.19516281  0.27451413    -0.54400
C172        C  0.12453119  0.20908305  0.24248556     0.09700
H173        H  0.19784773  0.23005521  0.23119525     0.14200
H174        H  0.11736739  0.26462837  0.19522834     0.00000
H175        H  0.15553971  0.29187896  0.32486307     0.14500
H176        H  0.13950060  0.16322547  0.29127392     0.14300
C177        C  0.83496789  0.24010372  0.21502877     0.86100
C178        C  0.82025013  0.25269222  0.25897179    -0.54100
C179        C  0.83597215  0.25586349  0.29600311     0.09100
C180        C  0.86507421  0.24560321  0.28648154     0.20000
C181        C  0.85638474  0.27668084  0.21167729    -0.54800
C182        C  0.87303069  0.27911782  0.24874342     0.09200
C183        C  0.85015088  0.19772143  0.22638365    -0.54400
C184        C  0.86572432  0.19972157  0.26355074     0.09700
H185        H  0.79985005  0.26299749  0.26094332     0.14200
H186        H  0.87685803  0.24601695  0.31783036     0.00000
H187        H  0.85669538  0.29983278  0.18368826     0.14500
H188        H  0.85034175  0.16962240  0.20346509     0.14300
C189        C  0.66480419  0.99095292  0.20514624     0.86100
C190        C  0.68082401  0.48603981  0.24896614    -0.54100
C191        C  0.66622358  0.47672345  0.28658437     0.09100
C192        C  0.63613439  0.47561398  0.27759434     0.20000
C193        C  0.64770709  0.44840753  0.20251081    -0.54800
C194        C  0.63262428  0.44001133  0.24050807     0.09200
C195        C  0.64533601  0.02823048  0.21725015    -0.54400
C196        C  0.62944790  0.01957836  0.25327392     0.09700
H197        H  0.70198744  0.48920032  0.25107982     0.14200
H198        H  0.62382095  0.47072432  0.30818180     0.00000
H199        H  0.64733076  0.42740245  0.17266160     0.14500
H200        H  0.64317045  0.05854298  0.19752277     0.14300
C201        C  0.33130352  0.47904033  0.21467540     0.86100
C202        C  0.31702644  0.48482679  0.25986413    -0.54100
C203        C  0.33310599  0.99150075  0.29581977     0.09100
C204        C  0.36261031  0.98913670  0.28380314     0.20000
C205        C  0.34924667  0.02080766  0.21127515    -0.54800
C206        C  0.36607404  0.02562938  0.24759249     0.09200
C207        C  0.35111234  0.44148728  0.22113353    -0.54400
C208        C  0.36773199  0.44552151  0.25728073     0.09700
H209        H  0.29582099  0.48946625  0.26204840     0.14200
H210        H  0.37461886  0.99269598  0.31461464     0.00000
H211        H  0.34842829  0.04494952  0.18414997     0.14500
H212        H  0.35275412  0.41560840  0.19577924     0.14300
N213        N  0.50075229  0.29951339  0.26659205    -0.37000
N214        N  0.45888435  0.23412592  0.27723916    -0.57500
N215        N  0.49717220  0.16238008  0.28093453    -0.37000
N216        N  0.53925027  0.22746305  0.26672775    -0.57500
C217        C  0.47927274  0.32512351  0.25849314     0.26600
C218        C  0.52219661  0.32193948  0.25148263     0.26600
C219        C  0.47478961  0.13859086  0.27493222     0.26600
C220        C  0.51772762  0.13456369  0.27406797     0.26600
C221        C  0.44529225  0.27175811  0.28597792     0.35200
C222        C  0.44271507  0.19992205  0.28763064     0.35200
C223        C  0.55605959  0.26233846  0.26322187     0.35200
C224        C  0.55421980  0.19069279  0.27349632     0.35200
C225        C  0.48722388  0.36457114  0.23824305    -0.22300
C226        C  0.51424875  0.36295365  0.23470445    -0.22300
C227        C  0.48126106  0.09466834  0.26580533    -0.22300
C228        C  0.50827987  0.09204781  0.26563457    -0.22300
C229        C  0.42070070  0.26127815  0.30363526    -0.23300
C230        C  0.41868803  0.21589302  0.30288512    -0.23300
C231        C  0.58181834  0.24737002  0.26686265    -0.23300
C232        C  0.58065178  0.20225908  0.27344374    -0.23300
C233        C  0.45290977  0.31460391  0.27091116    -0.18700
C234        C  0.54878412  0.30717898  0.25414079    -0.18700
C235        C  0.54477701  0.14624396  0.27548670    -0.18700
C236        C  0.44868039  0.15477571  0.27965718    -0.18700
H237        H  0.47495332  0.39203484  0.22745672     0.14300
H238        H  0.52652285  0.38914729  0.22105875     0.14300
H239        H  0.46795389  0.06706277  0.26052494     0.14300
H240        H  0.51957995  0.06209289  0.25965624     0.14300
H241        H  0.40509688  0.28396590  0.31319648     0.12500
H242        H  0.40128916  0.19719459  0.31196819     0.12500
H243        H  0.59973478  0.26665218  0.26407568     0.12500
H244        H  0.59747821  0.18036770  0.27663973     0.12500
H245        H  0.50101470  0.27033121  0.28576441     0.25800
H246        H  0.49851256  0.19501588  0.29264565     0.25800
O247        O  0.75171787  0.17681791  0.05621620    -0.74800
O248        O  0.71574609  0.12299699  0.95719788    -0.74800
O249        O  0.71449858  0.11220269  0.04795331    -0.74900
O250        O  0.75310346  0.18652048  0.96561984    -0.74900
O251        O  0.78424787  0.13439478  0.96116760    -0.74900
O252        O  0.74588161  0.06052714  0.04382322    -0.74800
O253        O  0.74691531  0.07091558  0.95204844    -0.74800
O254        O  0.78344730  0.12564570  0.05169521    -0.74900
Ni255      Ni  0.73264541  0.15135352  0.00700305     1.25400
Ni256      Ni  0.76621538  0.09587144  0.00213260     1.25400
C257        C  0.77380775  0.16107712  0.06945770     0.87400
C258        C  0.72544808  0.08863568  0.93784954     0.87300
C259        C  0.72355505  0.07385200  0.05898881     0.87400
C260        C  0.77530239  0.17276810  0.95036995     0.87500
O261        O  0.24929605  0.18295993  0.44892146    -0.74800
O262        O  0.29081963  0.13338997  0.54509934    -0.74800
O263        O  0.29062691  0.12571568  0.45357178    -0.74900
O264        O  0.24972537  0.19044492  0.54066166    -0.74900
O265        O  0.22249796  0.13240296  0.54642414    -0.74900
O266        O  0.26301728  0.06821645  0.45915263    -0.74800
O267        O  0.26340809  0.07560975  0.54985571    -0.74800
O268        O  0.22168139  0.12569203  0.45472721    -0.74900
Ni269      Ni  0.27113061  0.16019174  0.49675334     1.25400
Ni270      Ni  0.24161795  0.09854344  0.50257019     1.25400
C271        C  0.22835650  0.16268756  0.43632932     0.87400
C272        C  0.28372091  0.09671004  0.56369503     0.87300
C273        C  0.28370914  0.08620598  0.44249951     0.87400
C274        C  0.22987272  0.17119415  0.55891991     0.87500
O275        O  0.71496917  0.36931868  0.54732377    -0.74800
O276        O  0.76096992  0.31191401  0.46257808    -0.74800
O277        O  0.75825875  0.31613057  0.55412095    -0.74900
O278        O  0.71790538  0.36509723  0.45537217    -0.74900
O279        O  0.74348212  0.42536194  0.45485711    -0.74900
O280        O  0.78376063  0.37637290  0.55349377    -0.74800
O281        O  0.78668409  0.37188289  0.46175246    -0.74800
O282        O  0.74061867  0.42950437  0.54604973    -0.74900
Ni283      Ni  0.73708039  0.33851464  0.50490318     1.25400
Ni284      Ni  0.76457345  0.40285579  0.50402439     1.25400
C285        C  0.72013707  0.40899628  0.56035847     0.87400
C286        C  0.78146456  0.33235120  0.44820307     0.87300
C287        C  0.77773249  0.33824714  0.57013619     0.87400
C288        C  0.72405944  0.40323271  0.43882462     0.87500
C289        C  0.31893662  0.99512774  0.37679875    -0.09500
C290        C  0.32304850  0.01685467  0.33529061     0.06700
C291        C  0.31566672  0.06210312  0.33096271    -0.03300
C292        C  0.30426926  0.08432454  0.36737419    -0.07700
C293        C  0.29895191  0.06217844  0.40792983     0.05800
C294        C  0.30667236  0.01733623  0.41298085    -0.02800
Br295      Br  0.30135050  0.98559272  0.46870415    -0.02500
H296        H  0.32447488  0.46049427  0.38060631     0.09700
H297        H  0.29822023  0.11868079  0.36314509     0.07700
Br298      Br  0.31871338  0.09566097  0.27589185    -0.02900
C299        C  0.43424740  0.39018351  0.28843551    -0.09500
C300        C  0.43179805  0.34915644  0.26636887     0.06700
C301        C  0.40866319  0.34076783  0.24164423    -0.03300
C302        C  0.38759236  0.37028522  0.24421335    -0.07700
C303        C  0.39009771  0.41285105  0.26402626     0.05800
C304        C  0.41461593  0.42294996  0.28508402    -0.02800
Br305      Br  0.42544725  0.48062920  0.30533295    -0.02500
H306        H  0.45218748  0.39756183  0.30674264     0.09700
H307        H  0.36941279  0.35969584  0.22871879     0.07700
Br308      Br  0.40502336  0.29083995  0.20137312    -0.02900
C309        C  0.38964331  0.07879959  0.29765432    -0.09500
C310        C  0.38552116  0.06225795  0.25361018     0.06700
C311        C  0.40204399  0.07745022  0.21822929    -0.03300
C312        C  0.42174090  0.10868924  0.22742316    -0.07700
C313        C  0.42642358  0.12353075  0.27173673     0.05800
C314        C  0.41039540  0.10776932  0.30716403    -0.02800
Br315      Br  0.41704063  0.12246906  0.36935081    -0.02500
H316        H  0.37729923  0.06784650  0.32544785     0.09700
H317        H  0.43432904  0.12009565  0.20008458     0.07700
Br318      Br  0.40116745  0.05363485  0.15794362    -0.02900
C319        C  0.69074564  0.41554295  0.32427035    -0.09500
C320        C  0.67940224  0.45808826  0.32741573     0.06700
C321        C  0.68322043  0.48295130  0.36718180    -0.03300
C322        C  0.69790536  0.46485883  0.40319507    -0.07700
C323        C  0.70868846  0.42175529  0.40039219     0.05800
C324        C  0.70501152  0.39717617  0.36030220    -0.02800
Br325      Br  0.72073772  0.33969494  0.35169880    -0.02500
H326        H  0.68860410  0.39657620  0.29330931     0.09700
H327        H  0.70084297  0.48444222  0.43351505     0.07700
Br328      Br  0.66977658  0.04222874  0.37253938    -0.02900
C329        C  0.66682937  0.02389457  0.12593188    -0.09500
C330        C  0.68019557  0.00166829  0.16123703     0.06700
C331        C  0.70751525  0.99364213  0.15475871    -0.03300
C332        C  0.72131074  0.01657740  0.12062799    -0.07700
C333        C  0.70820143  0.04517714  0.09047674     0.05800
C334        C  0.68045137  0.04577106  0.09121778    -0.02800
Br335      Br  0.65994175  0.07434672  0.04489352    -0.02500
H336        H  0.64556174  0.02608570  0.12633566     0.09700
H337        H  0.74242845  0.01212487  0.11783473     0.07700
Br338      Br  0.72637415  0.44670575  0.18483908    -0.02900
C339        C  0.60008907  0.06479693  0.30409394    -0.09500
C340        C  0.60535652  0.04675348  0.26118405     0.06700
C341        C  0.58840418  0.05760275  0.22477656    -0.03300
C342        C  0.56885730  0.08972312  0.23035792    -0.07700
C343        C  0.56457288  0.10972901  0.27245013     0.05800
C344        C  0.57960187  0.09577312  0.31000301    -0.02800
Br345      Br  0.57292299  0.11881624  0.36941211    -0.02500
H346        H  0.61235594  0.05587235  0.33264497     0.09700
H347        H  0.55678362  0.09910966  0.20166136     0.07700
Br348      Br  0.58990929  0.02821566  0.16704904    -0.02900
C349        C  0.59801560  0.39115952  0.20486827    -0.09500
C350        C  0.61243625  0.40342262  0.24371115     0.06700
C351        C  0.60617250  0.38182531  0.28515038    -0.03300
C352        C  0.58489851  0.35233813  0.28766337    -0.07700
C353        C  0.57040394  0.34080091  0.24916981     0.05800
C354        C  0.57773504  0.35937383  0.20711945    -0.02800
Br355      Br  0.56116780  0.34129858  0.15180820    -0.02500
H356        H  0.60233626  0.40647069  0.17248873     0.09700
H357        H  0.58020440  0.33676229  0.31981917     0.07700
Br358      Br  0.62712437  0.38580318  0.33891949    -0.02900
C359        C  0.81409652  0.24695949  0.37084854    -0.09500
C360        C  0.82597140  0.27499267  0.33884051     0.06700
C361        C  0.82527406  0.32137023  0.34561745    -0.03300
C362        C  0.81188749  0.33897450  0.38284084    -0.07700
C363        C  0.79860054  0.31126530  0.41360607     0.05800
C364        C  0.80063439  0.26459644  0.40828097    -0.02800
Br365      Br  0.78620701  0.22317142  0.45125277    -0.02500
H366        H  0.81471289  0.21124394  0.36604682     0.09700
H367        H  0.81074328  0.37480032  0.38632634     0.07700
Br368      Br  0.84028821  0.36285444  0.30352829    -0.02900
C369        C  0.81529736  0.19456094  0.09827292    -0.09500
C370        C  0.78855542  0.18520453  0.10483210     0.06700
C371        C  0.77611466  0.20049678  0.14436720    -0.03300
C372        C  0.79062547  0.22290756  0.17743487    -0.07700
C373        C  0.81803950  0.23041740  0.17277835     0.05800
C374        C  0.82999055  0.21700940  0.13127040    -0.02800
Br375      Br  0.86695064  0.22321566  0.11880818    -0.02500
H376        H  0.82497844  0.18363684  0.06749651     0.09700
H377        H  0.78017279  0.23084484  0.20808191     0.07700
Br378      Br  0.73994810  0.18672552  0.15769575    -0.02900
C379        C  0.22341022  0.20902488  0.36630920    -0.09500
C380        C  0.21183796  0.18189068  0.39964774     0.06700
C381        C  0.18443766  0.17485542  0.39793652    -0.03300
C382        C  0.16995213  0.19039824  0.36098401    -0.07700
C383        C  0.18188622  0.21337510  0.32451401     0.05800
C384        C  0.20859494  0.22632845  0.33018110    -0.02800
Br385      Br  0.22547409  0.27215885  0.29519584    -0.02500
H386        H  0.24406003  0.21770379  0.36884786     0.09700
H387        H  0.14886469  0.18533902  0.36175036     0.07700
Br388      Br  0.16497605  0.14840474  0.44700502    -0.02900
C389        C  0.10518384  0.34668795  0.22937942    -0.09500
C390        C  0.11436498  0.32541138  0.26892109     0.06700
C391        C  0.10373970  0.33953935  0.31132721    -0.03300
C392        C  0.08403063  0.37218351  0.31246693    -0.07700
C393        C  0.07461487  0.39151301  0.27261615     0.05800
C394        C  0.08576528  0.37944492  0.23098783    -0.02800
Br395      Br  0.07406439  0.40544122  0.17510589    -0.02500
H396        H  0.11239000  0.33736570  0.19639205     0.09700
H397        H  0.07534023  0.38161506  0.34461282     0.07700
Br398      Br  0.11200270  0.31371332  0.36925850    -0.02900
C399        C  0.05838369  0.15509054  0.26157869    -0.09500
C400        C  0.06054068  0.11732491  0.23411813     0.06700
C401        C  0.08156179  0.11467704  0.20280746    -0.03300
C402        C  0.10142379  0.14718053  0.20301550    -0.07700
C403        C  0.10028961  0.18308663  0.23329128     0.05800
C404        C  0.07793171  0.18774503  0.26132334    -0.02800
Br405      Br  0.07403212  0.23563229  0.30322909    -0.02500
H406        H  0.04221196  0.15783215  0.28544918     0.09700
H407        H  0.11846348  0.14314917  0.18124034     0.07700
Br408      Br  0.08450862  0.06626085  0.16082476    -0.02900
C409        C  0.90208659  0.08934927  0.26158876    -0.09500
C410        C  0.92706478  0.10163611  0.27758696     0.06700
C411        C  0.93057061  0.14523802  0.29432675    -0.03300
C412        C  0.91020676  0.17633734  0.29061200    -0.07700
C413        C  0.88536435  0.16419252  0.27375649     0.05800
C414        C  0.88098843  0.11904685  0.26241671    -0.02800
Br415      Br  0.84667131  0.09411851  0.25141093    -0.02500
H416        H  0.89873333  0.05602788  0.24899114     0.09700
H417        H  0.91427882  0.21037233  0.30008792     0.07700
Br418      Br  0.96249297  0.16447644  0.32311377    -0.02900
C419        C  0.90345816  0.32237499  0.29978804    -0.09500
C420        C  0.89530671  0.31213608  0.25510694     0.06700
C421        C  0.90916462  0.33327631  0.21900488    -0.03300
C422        C  0.92882438  0.36471628  0.22838404    -0.07700
C423        C  0.93635389  0.37441745  0.27285958     0.05800
C424        C  0.92412584  0.35179377  0.30861904    -0.02800
Br425      Br  0.93519271  0.35982752  0.37017249    -0.02500
H426        H  0.89355640  0.30870136  0.32894950     0.09700
H427        H  0.93873309  0.38135990  0.20056695     0.07700
Br428      Br  0.90485537  0.31992170  0.15597251    -0.02900
C429        C  0.20019919  0.27320200  0.09799515    -0.09500
C430        C  0.19629385  0.31932166  0.09177536     0.06700
C431        C  0.17842964  0.34124309  0.12119228    -0.03300
C432        C  0.16632683  0.31772762  0.15663261    -0.07700
C433        C  0.17069418  0.27212279  0.16331565     0.05800
C434        C  0.18758582  0.24970398  0.13305490    -0.02800
Br435      Br  0.19415989  0.18703595  0.13828850    -0.02500
H436        H  0.21345198  0.25520216  0.07580611     0.09700
H437        H  0.15470946  0.33605538  0.18085849     0.07700
Br438      Br  0.17072340  0.40374871  0.11788164    -0.02900
C439        C  0.30907729  0.49426889  0.13772523    -0.09500
C440        C  0.31202983  0.46742615  0.17663642     0.06700
C441        C  0.29735671  0.42707191  0.17895871    -0.03300
C442        C  0.28255020  0.41298626  0.14202913    -0.07700
C443        C  0.28079546  0.43874668  0.10285444     0.05800
C444        C  0.29341303  0.48037568  0.10125363    -0.02800
Br445      Br  0.29121631  0.51794154  0.04882164    -0.02500
H446        H  0.31913018  0.02573375  0.13462463     0.09700
H447        H  0.27236947  0.38133145  0.14380856     0.07700
Br448      Br  0.29707402  0.38773821  0.23062058    -0.02900
C449        C  0.33122657  0.46006340  0.87177266    -0.09500
C450        C  0.32003940  0.48998083  0.84063851     0.06700
C451        C  0.29395580  0.50488218  0.84959416    -0.03300
C452        C  0.27870221  0.48423093  0.88334477    -0.07700
C453        C  0.28903873  0.45013167  0.91062660     0.05800
C454        C  0.31618576  0.44015262  0.90622128    -0.02800
Br455      Br  0.33455836  0.40113384  0.94697391    -0.02500
H456        H  0.35171607  0.45089923  0.86902258     0.09700
H457        H  0.25850132  0.49492413  0.88805821     0.07700
Br458      Br  0.27861113  0.05650876  0.82146623    -0.02900
C459        C  0.31983264  0.08815591  0.67505268    -0.09500
C460        C  0.32616464  0.04235371  0.67763809     0.06700
C461        C  0.31561870  0.01415910  0.64370252    -0.03300
C462        C  0.30249073  0.03266242  0.60634909    -0.07700
C463        C  0.29866253  0.07876493  0.60242599     0.05800
C464        C  0.30703737  0.10649545  0.63778148    -0.02800
Br465      Br  0.29965270  0.16925400  0.63942748    -0.02500
H466        H  0.32431057  0.11042029  0.70270207     0.09700
H467        H  0.29478853  0.01073634  0.58048407     0.07700
Br468      Br  0.31536843  0.45039941  0.64758346    -0.02900
C469        C  0.41023626  0.36686805  0.77901416    -0.09500
C470        C  0.43311437  0.37259703  0.75274628     0.06700
C471        C  0.43525046  0.41102306  0.72528854    -0.03300
C472        C  0.41553049  0.44366693  0.72670244    -0.07700
C473        C  0.39284529  0.43790424  0.75335817     0.05800
C474        C  0.38984524  0.39815970  0.77806062    -0.02800
Br475      Br  0.35714765  0.38176301  0.80563111    -0.02500
H476        H  0.40781715  0.33705433  0.79926642     0.09700
H477        H  0.41764857  0.47335480  0.70614637     0.07700
Br478      Br  0.46357936  0.41927544  0.68286613    -0.02900
C479        C  0.40917836  0.15618820  0.79482092    -0.09500
C480        C  0.43502091  0.14259493  0.78335204     0.06700
C481        C  0.44074486  0.09675861  0.79152819    -0.03300
C482        C  0.42006521  0.06564578  0.79363299    -0.07700
C483        C  0.39382466  0.07996561  0.79359148     0.05800
C484        C  0.38869750  0.12555204  0.79894276    -0.02800
Br485      Br  0.35361644  0.14757124  0.80874638    -0.02500
H486        H  0.40429576  0.19083105  0.79945844     0.09700
H487        H  0.42449405  0.03038281  0.79406255     0.07700
Br488      Br  0.47474379  0.07507966  0.80989191    -0.02900
C489        C  0.70930581  0.04208682  0.82160082    -0.09500
C490        C  0.68146733  0.03948480  0.82316619     0.06700
C491        C  0.66877991  0.05425074  0.86341082    -0.03300
C492        C  0.68362776  0.06823926  0.90054852    -0.07700
C493        C  0.71117001  0.06972239  0.89882248     0.05800
C494        C  0.72401245  0.05725125  0.85856548    -0.02800
Br495      Br  0.76123569  0.56552480  0.85009849    -0.02500
H496        H  0.72015596  0.53497790  0.79113170     0.09700
H497        H  0.67345367  0.07918083  0.93086900     0.07700
Br498      Br  0.63120106  0.05960995  0.87002100    -0.02900
C499        C  0.69408349  0.40584626  0.63118088    -0.09500
C500        C  0.70290047  0.43075281  0.59389639     0.06700
C501        C  0.69660353  0.47646217  0.59127095    -0.03300
C502        C  0.68304473  0.49687676  0.62694448    -0.07700
C503        C  0.67576787  0.47238081  0.66531268     0.05800
C504        C  0.68080799  0.42639045  0.66696331    -0.02800
Br505      Br  0.67101236  0.39074762  0.71828124    -0.02500
H506        H  0.69865475  0.37070159  0.63354898     0.09700
H507        H  0.67891016  0.53221896  0.62540411     0.07700
Br508      Br  0.70556691  0.51234468  0.53964639    -0.02900
C509        C  0.59258392  0.08292235  0.75679615    -0.09500
C510        C  0.61047845  0.08288477  0.72056234     0.06700
C511        C  0.60618855  0.11138792  0.68352094    -0.03300
C512        C  0.58467205  0.14081987  0.68415954    -0.07700
C513        C  0.56786490  0.14291287  0.72213684     0.05800
C514        C  0.57171273  0.11288326  0.75818737    -0.02800
Br515      Br  0.55080321  0.11432242  0.81246852    -0.02500
H516        H  0.59566489  0.06086573  0.78534394     0.09700
H517        H  0.58190974  0.16381194  0.65628306     0.07700
Br518      Br  0.63029881  0.11333830  0.63353347    -0.02900
C519        C  0.60852558  0.41070185  0.78774617    -0.09500
C520        C  0.60656352  0.44572855  0.75589467     0.06700
C521        C  0.58457698  0.44534027  0.72602254     0.02300
C522        C  0.56724100  0.40923270  0.72604446    -0.07700
C523        C  0.56960269  0.37459292  0.75745329     0.05800
C524        C  0.58984895  0.37648669  0.78975448    -0.02800
Br525      Br  0.59210972  0.33431215  0.83846001    -0.02500
H526        H  0.62467078  0.40934137  0.81147613     0.09700
H527        H  0.55098419  0.40894198  0.70230265     0.07700
Br528      Br  0.57375669  0.49379948  0.68785860    -0.02900
C529        C  0.77756408  0.22901043  0.88841335    -0.09500
C530        C  0.79063953  0.20077442  0.91893708     0.06700
C531        C  0.81834009  0.19915081  0.91793897    -0.03300
C532        C  0.83183254  0.22019376  0.88296105    -0.07700
C533        C  0.81840434  0.24050243  0.84675833     0.05800
C534        C  0.79132203  0.24996877  0.85310028    -0.02800
Br535      Br  0.77318891  0.29705943  0.82212417    -0.02500
H536        H  0.75652777  0.23427927  0.89152956     0.09700
H537        H  0.85299979  0.21777585  0.88238257     0.07700
Br538      Br  0.83912749  0.16865372  0.96266877    -0.02900
C539        C  0.81871720  0.32663217  0.67798350    -0.09500
C540        C  0.82340938  0.28063131  0.67938944     0.06700
C541        C  0.81316456  0.25377086  0.64472194    -0.03300
C542        C  0.79848991  0.27300576  0.60938506    -0.07700
C543        C  0.79365544  0.31916758  0.60791895     0.05800
C544        C  0.80399742  0.34598795  0.64293853    -0.02800
Br545      Br  0.79638532  0.40841039  0.64769744    -0.02500
H546        H  0.82556046  0.34739755  0.70551699     0.09700
H547        H  0.79072342  0.25172227  0.58303704     0.07700
Br548      Br  0.81803234  0.19054525  0.64552992    -0.02900
C549        C  0.20487485  0.28156472  0.88866806    -0.09500
C550        C  0.20024143  0.32696414  0.89752837     0.06700
C551        C  0.18124088  0.34964218  0.87083850    -0.03300
C552        C  0.16803790  0.32709935  0.83610728    -0.07700
C553        C  0.17358906  0.28248161  0.82661515     0.05800
C554        C  0.19189139  0.25949286  0.85354444    -0.02800
Br555      Br  0.19999211  0.19797569  0.84305020    -0.02500
H556        H  0.21894842  0.26304188  0.90877053     0.09700
H557        H  0.15432897  0.34515743  0.81479980     0.07700
Br558      Br  0.17355206  0.41196807  0.87667841    -0.02900
C559        C  0.20050281  0.18948694  0.67414969    -0.09500
C560        C  0.18516886  0.22817987  0.66789260     0.06700
C561        C  0.18894196  0.25261358  0.62702901    -0.03300
C562        C  0.20414612  0.23413383  0.59189078    -0.07700
C563        C  0.21606168  0.19236737  0.59691035     0.05800
C564        C  0.21489476  0.17078618  0.63898569    -0.02800
Br565      Br  0.23235463  0.11521755  0.65054195    -0.02500
H566        H  0.20011947  0.17195742  0.70624654     0.09700
H567        H  0.20646037  0.25221402  0.56034908     0.07700
Br568      Br  0.17799947  0.31311490  0.61787792    -0.02900
C569        C  0.10699441  0.35060725  0.70774866    -0.09500
C570        C  0.10406755  0.31166117  0.73391306     0.06700
C571        C  0.08058460  0.30671654  0.75963793    -0.03300
C572        C  0.06233489  0.34158916  0.76184861    -0.07700
C573        C  0.06563783  0.38054470  0.73629296     0.05800
C574        C  0.08776786  0.38397090  0.70757352    -0.02800
Br575      Br  0.09234398  0.43264151  0.66609556    -0.02500
H576        H  0.12444349  0.35554223  0.68721971     0.09700
H577        H  0.04497079  0.33782769  0.78292985     0.07700
Br578      Br  0.06977349  0.25257365  0.78853911    -0.02900
C579        C  0.08222689  0.12207393  0.80106196    -0.09500
C580        C  0.07025908  0.10975245  0.76005841     0.06700
C581        C  0.07909435  0.12863210  0.71923557    -0.03300
C582        C  0.09911178  0.16001673  0.71989618    -0.07700
C583        C  0.11184650  0.17159137  0.76051786     0.05800
C584        C  0.10323417  0.15239987  0.80143666    -0.02800
Br585      Br  0.12010187  0.16533468  0.85785416    -0.02500
H586        H  0.07554997  0.10737231  0.83257631     0.09700
H587        H  0.10513770  0.17491198  0.68807332     0.07700
Br588      Br  0.06485819  0.11194627  0.66143373    -0.02900
C589        C  0.92725361  0.13906906  0.78606828    -0.09500
C590        C  0.93328852  0.12048047  0.74422571     0.06700
C591        C  0.91930638  0.13423073  0.70551400    -0.03300
C592        C  0.89872386  0.16533909  0.70964053    -0.07700
C593        C  0.89167384  0.18244620  0.75225514     0.05800
C594        C  0.90683847  0.16957968  0.79057366    -0.02800
Br595      Br  0.90195199  0.19166213  0.85076175    -0.02500
H596        H  0.93820212  0.12878952  0.81579527     0.09700
H597        H  0.88767722  0.17499082  0.67985534     0.07700
Br598      Br  0.92758068  0.11055858  0.64699422    -0.02900
C599        C  0.89084359  0.35004113  0.72318228    -0.09500
C600        C  0.88976686  0.32629628  0.76418342     0.06700
C601        C  0.90886660  0.33491008  0.79780931    -0.03300
C602        C  0.92872621  0.36589358  0.78944623    -0.07700
C603        C  0.92962949  0.38942366  0.74860508     0.05800
C604        C  0.91034270  0.38190434  0.71548193    -0.02800
Br605      Br  0.90976563  0.41475398  0.65975666    -0.02500
H606        H  0.87628871  0.34412614  0.69713583     0.09700
H607        H  0.94340149  0.37222847  0.81524436     0.07700
Br608      Br  0.90986514  0.30547831  0.85533163    -0.02900
N609        N  0.00041691  0.56835473  0.75245642    -0.37000
N610        N  0.95876050  0.00358454  0.74119224    -0.57500
N611        N  0.99804848  0.93266215  0.74365509    -0.37000
N612        N  0.03969162  0.99737220  0.74970112    -0.57500
C613        C  0.98008593  0.59585307  0.74246553     0.26600
C614        C  0.02270912  0.59280250  0.75087273     0.26600
C615        C  0.97597816  0.91013463  0.73268333     0.26600
C616        C  0.01885486  0.90725477  0.73113345     0.26600
C617        C  0.94403537  0.54029062  0.74844689     0.35200
C618        C  0.94292028  0.96858184  0.74980259     0.35200
C619        C  0.05524981  0.53133032  0.76300605     0.35200
C620        C  0.05404712  0.95972092  0.75426042     0.35200
C621        C  0.98949164  0.63855794  0.73546893    -0.22300
C622        C  0.01633371  0.63675444  0.74110574    -0.22300
C623        C  0.98264319  0.86974718  0.71327102    -0.22300
C624        C  0.00974097  0.86816822  0.71167269    -0.22300
C625        C  0.91860068  0.52857910  0.76077748    -0.23300
C626        C  0.91797804  0.98304999  0.76214520    -0.23300
C627        C  0.07975768  0.51516733  0.77568658    -0.23300
C628        C  0.07886785  0.96977359  0.77075793    -0.23300
C629        C  0.95310997  0.58428154  0.74321270    -0.18700
C630        C  0.04852098  0.57691099  0.75962082    -0.18700
C631        C  0.04565964  0.91700403  0.74023089    -0.18700
C632        C  0.95009304  0.92384724  0.74301159    -0.18700
H633        H  0.97813895  0.66815796  0.72798830     0.14300
H634        H  0.02955835  0.66486353  0.73859509     0.14300
H635        H  0.96934266  0.84410006  0.70160678     0.14300
H636        H  0.02136286  0.84087218  0.69853286     0.14300
H637        H  0.90228129  0.55053008  0.76843368     0.12500
H638        H  0.90096308  0.96291307  0.77041537     0.12500
H639        H  0.09669412  0.53401321  0.78676029     0.12500
H640        H  0.09489155  0.94696084  0.77751528     0.12500
H641        H  0.99903534  0.53599127  0.76426675     0.25800
H642        H  0.99859186  0.96080777  0.76397276     0.25800
C643        C  0.16559565  0.73904731  0.70610178     0.86100
C644        C  0.15158257  0.69681434  0.72242641    -0.54100
C645        C  0.13460134  0.70237377  0.75769102     0.09100
C646        C  0.13431298  0.75061403  0.77579832     0.20000
C647        C  0.14232386  0.77133113  0.69741118    -0.54800
C648        C  0.12618253  0.77844693  0.73424276     0.09200
C649        C  0.17946727  0.75693184  0.74796850    -0.54400
C650        C  0.16338977  0.76285104  0.78434214     0.09700
H651        H  0.15235687  0.66587924  0.70339452     0.14200
H652        H  0.12213752  0.75567966  0.80649171     0.00000
H653        H  0.13747532  0.78497808  0.66468894     0.14500
H654        H  0.20036014  0.76472525  0.74871548     0.14300
C655        C  0.83394045  0.74749183  0.80279700     0.86100
C656        C  0.85098159  0.70654680  0.79173666    -0.54100
C657        C  0.86816639  0.71205643  0.75683919     0.09100
C658        C  0.86449311  0.75686304  0.73188280     0.20000
C659        C  0.85339905  0.78662333  0.80614007    -0.54800
C660        C  0.86945178  0.79134000  0.76917722     0.09200
C661        C  0.81889955  0.75518629  0.75842896    -0.54400
C662        C  0.83467769  0.76128166  0.72148557     0.09700
H663        H  0.85086167  0.67640493  0.81208896     0.14200
H664        H  0.87743725  0.76081672  0.70176317     0.00000
H665        H  0.85406593  0.80884964  0.83504743     0.14500
H666        H  0.79771970  0.75620567  0.75533996     0.14300
C667        C  0.66542298  0.52582770  0.78130743     0.86100
C668        C  0.65083202  0.56574557  0.76111108    -0.54100
C669        C  0.63467914  0.55595672  0.72565636     0.09100
C670        C  0.63590357  0.00665800  0.71152341     0.20000
C671        C  0.64369609  0.99084773  0.79086856    -0.54800
C672        C  0.62783005  0.98069970  0.75446154     0.09200
C673        C  0.68059868  0.00557426  0.74118165    -0.54400
C674        C  0.66517174  0.99583475  0.70503374     0.09700
H675        H  0.65039500  0.59798730  0.77773413     0.14200
H676        H  0.62496934  0.99882227  0.68031056     0.00000
H677        H  0.64134955  0.97580039  0.82400764     0.14500
H678        H  0.70125387  0.99665482  0.74113711     0.14300
N679        N  0.50171820  0.82533038  0.75354364    -0.37000
N680        N  0.46147876  0.75767292  0.76293110    -0.57500
N681        N  0.50189928  0.68965526  0.75080131    -0.37000
N682        N  0.54193216  0.75868277  0.74247980    -0.57500
C683        C  0.48020358  0.84943782  0.76491048     0.26600
C684        C  0.52309897  0.84947802  0.76532725     0.26600
C685        C  0.47976317  0.66464065  0.74834383     0.26600
C686        C  0.52113893  0.66735911  0.72851410     0.26600
C687        C  0.44713289  0.79249228  0.74749876     0.35200
C688        C  0.44668807  0.72094236  0.75622927     0.35200
C689        C  0.55795326  0.79449102  0.74484634     0.35200
C690        C  0.55738797  0.72314787  0.73373208     0.35200
C691        C  0.48784534  0.88914898  0.78460855    -0.22300
C692        C  0.51495087  0.88920172  0.78485920    -0.22300
C693        C  0.48458250  0.62740498  0.72197672    -0.22300
C694        C  0.51089776  0.62846528  0.71053354    -0.22300
C695        C  0.42371425  0.77770051  0.72898609    -0.23300
C696        C  0.42364703  0.73226144  0.73375200    -0.23300
C697        C  0.58378164  0.78170225  0.73684072    -0.23300
C698        C  0.58350122  0.73645348  0.73069633    -0.23300
C699        C  0.45409200  0.83751957  0.75404161    -0.18700
C700        C  0.54971496  0.83806073  0.75646135    -0.18700
C701        C  0.54812327  0.67924187  0.72695055    -0.18700
C702        C  0.45495679  0.67696904  0.76636199    -0.18700
H703        H  0.47522370  0.91564809  0.79669875     0.14300
H704        H  0.52727220  0.91579894  0.79744604     0.14300
H705        H  0.47057221  0.60221041  0.71186429     0.14300
H706        H  0.52131419  0.60364792  0.69088683     0.14300
H707        H  0.40839207  0.79754878  0.71345350     0.12500
H708        H  0.40864049  0.71000229  0.72106560     0.12500
H709        H  0.60115501  0.80251373  0.73637057     0.12500
H710        H  0.60065846  0.71604337  0.72434350     0.12500
H711        H  0.50145929  0.79669295  0.73378875     0.25800
H712        H  0.50421894  0.71783893  0.77086680     0.25800
C713        C  0.34138225  0.52576240  0.71934276     0.86100
C714        C  0.36007562  0.56128790  0.73806557    -0.54100
C715        C  0.37269687  0.55023435  0.77693006     0.09100
C716        C  0.36589095  0.00322330  0.79408310     0.20000
C717        C  0.35982941  0.98548088  0.71388375    -0.54800
C718        C  0.37220237  0.97289299  0.75301558     0.09200
C719        C  0.32304876  0.01350732  0.75864827    -0.54400
C720        C  0.33528411  0.00308968  0.79864596     0.09700
H721        H  0.36502504  0.59160490  0.71986455     0.14200
H722        H  0.37691054  0.99421006  0.82514630     0.00000
H723        H  0.36426877  0.96994459  0.68164589     0.14500
H724        H  0.30195453  0.01137214  0.75379357     0.14300
O725        O  0.27754931  0.88703142  0.95684061    -0.74800
O726        O  0.23328368  0.82481862  0.04144024    -0.74800
O727        O  0.23623136  0.82960354  0.94986849    -0.74900
O728        O  0.27403351  0.88229331  0.04826907    -0.74900
O729        O  0.24666691  0.94042027  0.04756273    -0.74900
O730        O  0.20808649  0.88625249  0.95067662    -0.74800
O731        O  0.20566256  0.88219276  0.04260439    -0.74800
O732        O  0.24959511  0.94400669  0.95601751    -0.74900
Ni733      Ni  0.25625586  0.85396711  0.99898467     1.25400
Ni734      Ni  0.22647516  0.91523688  0.99912295     1.25400
C735        C  0.27128740  0.92602783  0.94294936     0.87400
C736        C  0.21233909  0.84336546  0.05675302     0.87300
C737        C  0.21559791  0.84890870  0.93430167     0.87400
C738        C  0.26659885  0.91998123  0.06399025     0.87500
N739        N  0.00387548  0.92745014  0.28056487    -0.37000
N740        N  0.03990080  0.49992802  0.26089684    -0.57500
N741        N  0.99660483  0.56187805  0.26227409    -0.37000
N742        N  0.96050366  0.49002463  0.27848766    -0.57500
C743        C  0.02630250  0.90499241  0.27133344     0.26600
C744        C  0.98348671  0.89934409  0.27325427     0.26600
C745        C  0.01498326  0.58541985  0.23923193     0.26600
C746        C  0.97299544  0.58090910  0.25394926     0.26600
C747        C  0.05728957  0.96868757  0.27455059     0.35200
C748        C  0.05318501  0.53881776  0.25954718     0.35200
C749        C  0.94790028  0.95265776  0.29158065     0.35200
C750        C  0.94507296  0.52453590  0.29086761     0.35200
C751        C  0.02023378  0.86152192  0.25960203    -0.22300
C752        C  0.99316103  0.85806844  0.26043135    -0.22300
C753        C  0.00290016  0.61959614  0.21551419    -0.22300
C754        C  0.97629068  0.61655870  0.22454008    -0.22300
C755        C  0.08176302  0.98768889  0.28190318    -0.23300
C756        C  0.07910509  0.53229926  0.27272188    -0.23300
C757        C  0.92425592  0.96326216  0.31240532    -0.23300
C758        C  0.92289568  0.50888171  0.31339026    -0.23300
C759        C  0.05204147  0.92265997  0.27459117    -0.18700
C760        C  0.95658691  0.90940740  0.28076952    -0.18700
C761        C  0.94915786  0.56870347  0.27560180    -0.18700
C762        C  0.04248004  0.57910121  0.24304978    -0.18700
H763        H  0.03385820  0.83510153  0.25105884     0.14300
H764        H  0.98193942  0.82832462  0.25322133     0.14300
H765        H  0.01234984  0.64458708  0.19465175     0.14300
H766        H  0.96119469  0.63874549  0.21188665     0.14300
H767        H  0.09975133  0.97094724  0.29173363     0.12500
H768        H  0.09463232  0.55686210  0.27460220     0.12500
H769        H  0.90948742  0.94066060  0.32539327     0.12500
H770        H  0.90677260  0.52809354  0.32729032     0.12500
H771        H  0.00288390  0.95899638  0.29486074     0.25800
H772        H  0.00024722  0.53808109  0.28718400     0.25800
C773        C  0.16421555  0.72816619  0.28477787     0.86100
C774        C  0.17708876  0.73517629  0.23805272    -0.54100
C775        C  0.16029281  0.75082926  0.20549857     0.09100
C776        C  0.13135943  0.75479503  0.22212102     0.20000
C777        C  0.15048487  0.77260224  0.29518610    -0.54800
C778        C  0.13245852  0.78615390  0.26359619     0.09200
C779        C  0.14179895  0.69512805  0.27445354    -0.54400
C780        C  0.12448737  0.70907697  0.24242331     0.09700
H781        H  0.19780903  0.73002595  0.23119115     0.14200
H782        H  0.11733941  0.76466335  0.19520488     0.00000
H783        H  0.15549310  0.79180478  0.32487797     0.14500
H784        H  0.13944414  0.66317504  0.29118005     0.14300
C785        C  0.83498984  0.74014058  0.21503229     0.86100
C786        C  0.82027447  0.75271215  0.25898247    -0.54100
C787        C  0.83599723  0.75586469  0.29601464     0.09100
C788        C  0.86509905  0.74560453  0.28648553     0.20000
C789        C  0.85640814  0.77671683  0.21169580    -0.54800
C790        C  0.87305460  0.77913676  0.24876291     0.09200
C791        C  0.85017111  0.69775167  0.22636585    -0.54400
C792        C  0.86574524  0.69973314  0.26353250     0.09700
H793        H  0.79987611  0.76302684  0.26095805     0.14200
H794        H  0.87688666  0.74600210  0.31783107     0.00000
H795        H  0.85671780  0.79988365  0.18371930     0.14500
H796        H  0.85035836  0.66965954  0.20343757     0.14300
C797        C  0.66480636  0.49098898  0.20518601     0.86100
C798        C  0.68082486  0.98596445  0.24891862    -0.54100
C799        C  0.66622448  0.97664883  0.28653693     0.09100
C800        C  0.63613376  0.97557529  0.27755523     0.20000
C801        C  0.64768885  0.94839223  0.20245441    -0.54800
C802        C  0.63260769  0.93999410  0.24045186     0.09200
C803        C  0.64532281  0.52825057  0.21726554    -0.54400
C804        C  0.62943529  0.51959913  0.25328990     0.09700
H805        H  0.70198898  0.98911022  0.25103035     0.14200
H806        H  0.62382134  0.97068183  0.30814351     0.00000
H807        H  0.64730217  0.92740074  0.17259564     0.14500
H808        H  0.64315066  0.55855540  0.19752828     0.14300
C809        C  0.33130711  0.97907677  0.21464956     0.86100
C810        C  0.31703304  0.98486052  0.25984205    -0.54100
C811        C  0.33309593  0.49147215  0.29584542     0.09100
C812        C  0.36260253  0.48910950  0.28383512     0.20000
C813        C  0.34924317  0.52077133  0.21130118    -0.54800
C814        C  0.36606765  0.52559795  0.24762124     0.09200
C815        C  0.35111570  0.94152369  0.22109885    -0.54400
C816        C  0.36773481  0.94555120  0.25724590     0.09700
H817        H  0.29582803  0.98950328  0.26203151     0.14200
H818        H  0.37460971  0.49267521  0.31464789     0.00000
H819        H  0.34842911  0.54490880  0.18417144     0.14500
H820        H  0.35275613  0.91564713  0.19574163     0.14300
N821        N  0.50072848  0.79951328  0.26653075    -0.37000
N822        N  0.45886255  0.73412388  0.27721144    -0.57500
N823        N  0.49715453  0.66238603  0.28093487    -0.37000
N824        N  0.53922906  0.72747011  0.26668745    -0.57500
C825        C  0.47924833  0.82512278  0.25844212     0.26600
C826        C  0.52217085  0.82194297  0.25142110     0.26600
C827        C  0.47477318  0.63859077  0.27494515     0.26600
C828        C  0.51771124  0.63457077  0.27407739     0.26600
C829        C  0.44526868  0.77175712  0.28593661     0.35200
C830        C  0.44269404  0.69992153  0.28761201     0.35200
C831        C  0.55603682  0.76234478  0.26315307     0.35200
C832        C  0.55420108  0.69070409  0.27346185     0.35200
C833        C  0.48719693  0.86457489  0.23819727    -0.22300
C834        C  0.51422115  0.86296038  0.23465346    -0.22300
C835        C  0.48124711  0.59466541  0.26583721    -0.22300
C836        C  0.50826582  0.59204967  0.26566405    -0.22300
C837        C  0.42067637  0.76127968  0.30359258    -0.23300
C838        C  0.41866525  0.71589446  0.30285569    -0.23300
C839        C  0.58179690  0.74737900  0.26677886    -0.23300
C840        C  0.58063287  0.70227147  0.27338291    -0.23300
C841        C  0.45288727  0.81460164  0.27086762    -0.18700
C842        C  0.54875840  0.80718350  0.25406941    -0.18700
C843        C  0.54476004  0.64625581  0.27548107    -0.18700
C844        C  0.44866269  0.65477274  0.27966085    -0.18700
H845        H  0.47492536  0.89204044  0.22741919     0.14300
H846        H  0.52649340  0.88915868  0.22101230     0.14300
H847        H  0.46794169  0.56705514  0.26056928     0.14300
H848        H  0.51956750  0.56209461  0.25969529     0.14300
H849        H  0.40507151  0.78396813  0.31314698     0.12500
H850        H  0.40126664  0.69719713  0.31194247     0.12500
H851        H  0.59971245  0.76666041  0.26396878     0.12500
H852        H  0.59746051  0.68038233  0.27657630     0.12500
H853        H  0.50099252  0.77032578  0.28570090     0.25800
H854        H  0.49849383  0.69503088  0.29263183     0.25800
O855        O  0.75172991  0.67685199  0.05623596    -0.74800
O856        O  0.71575383  0.62300413  0.95723625    -0.74800
O857        O  0.71451334  0.61222759  0.04799421    -0.74900
O858        O  0.75310691  0.68653775  0.96563919    -0.74900
O859        O  0.78425537  0.63441881  0.96118975    -0.74900
O860        O  0.74589880  0.56055606  0.04386903    -0.74800
O861        O  0.74692641  0.57092834  0.95209098    -0.74800
O862        O  0.78346242  0.62568491  0.05171847    -0.74900
Ni863      Ni  0.73265484  0.65137389  0.00703271     1.25400
Ni864      Ni  0.76622826  0.59589764  0.00216629     1.25400
C865        C  0.77382239  0.66111896  0.06947454     0.87400
C866        C  0.72545719  0.58864149  0.93789205     0.87300
C867        C  0.72357156  0.57387940  0.05903428     0.87400
C868        C  0.77530636  0.67278920  0.95038861     0.87500
O869        O  0.24923533  0.68292429  0.44891382    -0.74800
O870        O  0.29078001  0.63338246  0.54508112    -0.74800
O871        O  0.29057037  0.62568731  0.45355528    -0.74900
O872        O  0.24968322  0.69043171  0.54065401    -0.74900
O873        O  0.22245920  0.63238797  0.54644415    -0.74900
O874        O  0.26296511  0.56818508  0.45916194    -0.74800
O875        O  0.26337153  0.57560023  0.54986407    -0.74800
O876        O  0.22162534  0.62565356  0.45474548    -0.74900
Ni877      Ni  0.27108042  0.66017082  0.49673957     1.25400
Ni878      Ni  0.24157188  0.59852015  0.50258534     1.25400
C879        C  0.22829603  0.66264391  0.43633242     0.87400
C880        C  0.28368610  0.59670532  0.56368813     0.87300
C881        C  0.28365386  0.58617351  0.44249510     0.87400
C882        C  0.22983594  0.67118152  0.55892997     0.87500
O883        O  0.71496759  0.86929789  0.54730783    -0.74800
O884        O  0.76097946  0.81189914  0.46257459    -0.74800
O885        O  0.75826396  0.81612596  0.55411678    -0.74900
O886        O  0.71790779  0.86506582  0.45535707    -0.74900
O887        O  0.74347656  0.92534007  0.45483712    -0.74900
O888        O  0.78375762  0.87637830  0.55348688    -0.74800
O889        O  0.78668559  0.87187779  0.46174578    -0.74800
O890        O  0.74060897  0.92949324  0.54602907    -0.74900
Ni891      Ni  0.73708456  0.83849645  0.50489370     1.25400
Ni892      Ni  0.76456902  0.90284795  0.50401062     1.25400
C893        C  0.72012940  0.90897937  0.56033769     0.87400
C894        C  0.78147223  0.83234240  0.44820040     0.87300
C895        C  0.77773387  0.83825170  0.57013259     0.87400
C896        C  0.72405738  0.90320153  0.43880505     0.87500
C897        C  0.31889475  0.49509086  0.37681061    -0.09500
C898        C  0.32302930  0.51682491  0.33531254     0.06700
C899        C  0.31564790  0.56207354  0.33098217    -0.03300
C900        C  0.30423415  0.58429002  0.36738256    -0.07700
C901        C  0.29889822  0.56213927  0.40792898     0.05800
C902        C  0.30661350  0.51729394  0.41298026    -0.02800
Br903      Br  0.30126216  0.48553662  0.46868724    -0.02500
H904        H  0.32452155  0.96053327  0.38059398     0.09700
H905        H  0.29818879  0.61864779  0.36315099     0.07700
Br906      Br  0.31871403  0.59563722  0.27591824    -0.02900
C907        C  0.43423453  0.89017932  0.28841042    -0.09500
C908        C  0.43177875  0.84915739  0.26633658     0.06700
C909        C  0.40864306  0.84077947  0.24161179    -0.03300
C910        C  0.38757748  0.87030512  0.24418466    -0.07700
C911        C  0.39009183  0.91286960  0.26399642     0.05800
C912        C  0.41461018  0.92295586  0.28505833    -0.02800
Br913      Br  0.42545223  0.98062894  0.30530964    -0.02500
H914        H  0.45217552  0.89754697  0.30671946     0.09700
H915        H  0.36939561  0.85972473  0.22869150     0.07700
Br916      Br  0.40499518  0.79085681  0.20133625    -0.02900
C917        C  0.38962940  0.57878852  0.29767295    -0.09500
C918        C  0.38551425  0.56222782  0.25363440     0.06700
C919        C  0.40204184  0.57740558  0.21825405    -0.03300
C920        C  0.42173390  0.60865501  0.22744039    -0.07700
C921        C  0.42640840  0.62352020  0.27174825     0.05800
C922        C  0.41037685  0.60777037  0.30717703    -0.02800
Br923      Br  0.41701101  0.62250304  0.36935932    -0.02500
H924        H  0.37728300  0.56784205  0.32546627     0.09700
H925        H  0.43432548  0.62005014  0.20010161     0.07700
Br926      Br  0.40118000  0.55355199  0.15798346    -0.02900
C927        C  0.69075318  0.91548262  0.32423836    -0.09500
C928        C  0.67940120  0.95802233  0.32737521     0.06700
C929        C  0.68321032  0.98289104  0.36714029    -0.03300
C930        C  0.69789386  0.96480963  0.40316122    -0.07700
C931        C  0.70868602  0.92171203  0.40036638     0.05800
C932        C  0.70501900  0.89712756  0.36027703    -0.02800
Br933      Br  0.72076104  0.83965704  0.35168384    -0.02500
H934        H  0.68861936  0.89651189  0.29327828     0.09700
H935        H  0.70082454  0.98439795  0.43347994     0.07700
Br936      Br  0.66979282  0.54229179  0.37259593    -0.02900
C937        C  0.66684008  0.52392042  0.12596444    -0.09500
C938        C  0.68020210  0.50170127  0.16127899     0.06700
C939        C  0.70752340  0.49367969  0.15481347    -0.03300
C940        C  0.72132303  0.51661249  0.12068476    -0.07700
C941        C  0.70821653  0.54520549  0.09052302     0.05800
C942        C  0.68046615  0.54579385  0.09125255    -0.02800
Br943      Br  0.65996150  0.57435626  0.04491324    -0.02500
H944        H  0.64557210  0.52610601  0.12635655     0.09700
H945        H  0.74244144  0.51216374  0.11790155     0.07700
Br946      Br  0.72636819  0.94665669  0.18476160    -0.02900
C947        C  0.60007519  0.56482109  0.30410325    -0.09500
C948        C  0.60534175  0.54676880  0.26119688     0.06700
C949        C  0.58838837  0.55760872  0.22478810    -0.03300
C950        C  0.56884059  0.58972813  0.23036392    -0.07700
C951        C  0.56455679  0.60974239  0.27245203     0.05800
C952        C  0.57958719  0.59579659  0.31000698    -0.02800
Br953      Br  0.57290938  0.61885282  0.36941109    -0.02500
H954        H  0.61234408  0.55590519  0.33265479     0.09700
H955        H  0.55676593  0.59910777  0.20166626     0.07700
Br956      Br  0.58989468  0.52821168  0.16706578    -0.02900
C957        C  0.59798282  0.89117944  0.20480539    -0.09500
C958        C  0.61241246  0.90341835  0.24364651     0.06700
C959        C  0.60615477  0.88180464  0.28507838    -0.03300
C960        C  0.58487732  0.85232659  0.28759047    -0.07700
C961        C  0.57037617  0.84080752  0.24909903     0.05800
C962        C  0.57770065  0.85939652  0.20705244    -0.02800
Br963      Br  0.56112473  0.84134321  0.15174090    -0.02500
H964        H  0.60229971  0.90650379  0.17243076     0.09700
H965        H  0.58018788  0.83673815  0.31974199     0.07700
Br966      Br  0.62712294  0.88573934  0.33883159    -0.02900
C967        C  0.81412540  0.74695598  0.37086378    -0.09500
C968        C  0.82599771  0.77499134  0.33885451     0.06700
C969        C  0.82529052  0.82136955  0.34562522    -0.03300
C970        C  0.81189797  0.83897134  0.38284325    -0.07700
C971        C  0.79861366  0.81125946  0.41360907     0.05800
C972        C  0.80065656  0.76459090  0.40829064    -0.02800
Br973      Br  0.78623181  0.72316458  0.45126367    -0.02500
H974        H  0.81474753  0.71124024  0.36606573     0.09700
H975        H  0.81074668  0.87479705  0.38632334     0.07700
Br976      Br  0.84029764  0.86285798  0.30353298    -0.02900
C977        C  0.81531023  0.69462912  0.09827029    -0.09500
C978        C  0.78857107  0.68525608  0.10484086     0.06700
C979        C  0.77613317  0.70053846  0.14438206    -0.03300
C980        C  0.79064499  0.72294987  0.17744755    -0.07700
C981        C  0.81805746  0.73047166  0.17278227     0.05800
C982        C  0.83000434  0.71708054  0.13126517    -0.02800
Br983      Br  0.86696088  0.72331416  0.11878679    -0.02500
H984        H  0.82498859  0.68371474  0.06748786     0.09700
H985        H  0.78019507  0.73087533  0.20810054     0.07700
Br986      Br  0.73997025  0.68675062  0.15772177    -0.02900
C987        C  0.22334313  0.70899927  0.36632611    -0.09500
C988        C  0.21177620  0.68182913  0.39964008     0.06700
C989        C  0.18438123  0.67473903  0.39788957    -0.03300
C990        C  0.16990017  0.69027220  0.36092647    -0.07700
C991        C  0.18183225  0.71329813  0.32448606     0.05800
C992        C  0.20853052  0.72629517  0.33019149    -0.02800
Br993      Br  0.22539705  0.77216352  0.29523985    -0.02500
H994        H  0.24398640  0.71771462  0.36889021     0.09700
H995        H  0.14881594  0.68517546  0.36166952     0.07700
Br996      Br  0.16491489  0.64822837  0.44691938    -0.02900
C997        C  0.10517295  0.84671810  0.22941767    -0.09500
C998        C  0.11433879  0.82539570  0.26894383     0.06700
C999        C  0.10370838  0.83948928  0.31135748    -0.03300
C1000       C  0.08401507  0.87215903  0.31252003    -0.07700
C1001       C  0.07461592  0.89154013  0.27268367     0.05800
C1002       C  0.08576707  0.87949589  0.23104825    -0.02800
Br1003     Br  0.07407935  0.90554699  0.17518444    -0.02500
H1004       H  0.11237961  0.83741389  0.19642534     0.09700
H1005       H  0.07531949  0.88156371  0.34467002     0.07700
Br1006     Br  0.11193181  0.81356294  0.36925928    -0.02900
C1007       C  0.05832620  0.65508809  0.26135952    -0.09500
C1008       C  0.06052276  0.61728409  0.23396038     0.06700
C1009       C  0.08157453  0.61461659  0.20271174    -0.03300
C1010       C  0.10142998  0.64713047  0.20294443    -0.07700
C1011       C  0.10025558  0.68307506  0.23316890     0.05800
C1012       C  0.07786380  0.68776118  0.26111525    -0.02800
Br1013     Br  0.07389928  0.73571741  0.30292223    -0.02500
H1014       H  0.04212926  0.65785069  0.28517675     0.09700
H1015       H  0.11849441  0.64308089  0.18123017     0.07700
Br1016     Br  0.08457184  0.56616483  0.16078062    -0.02900
C1017       C  0.90207896  0.58933666  0.26153372    -0.09500
C1018       C  0.92706622  0.60160707  0.27750318     0.06700
C1019       C  0.93058875  0.64520724  0.29423894    -0.03300
C1020       C  0.91022986  0.67631945  0.29055154    -0.07700
C1021       C  0.88537922  0.66419121  0.27372153     0.05800
C1022       C  0.88098856  0.61904967  0.26238277    -0.02800
Br1023     Br  0.84666128  0.59415256  0.25139770    -0.02500
H1024       H  0.89871326  0.55601819  0.24893809     0.09700
H1025       H  0.91431132  0.71035216  0.30002538     0.07700
Br1026     Br  0.96252863  0.66442708  0.32298158    -0.02900
C1027       C  0.90346906  0.82239087  0.29983446    -0.09500
C1028       C  0.89532508  0.81216204  0.25514678     0.06700
C1029       C  0.90918222  0.83332312  0.21905706    -0.03300
C1030       C  0.92883500  0.86477048  0.22845350    -0.07700
C1031       C  0.93635800  0.87446127  0.27293486     0.05800
C1032       C  0.92412922  0.85182053  0.30868291    -0.02800
Br1033     Br  0.93518558  0.85984372  0.37024337    -0.02500
H1034       H  0.89356639  0.80870032  0.32898712     0.09700
H1035       H  0.93874444  0.88142682  0.20064510     0.07700
Br1036     Br  0.90488130  0.81998642  0.15601914    -0.02900
C1037       C  0.20018089  0.77321845  0.09799774    -0.09500
C1038       C  0.19628231  0.81934110  0.09178719     0.06700
C1039       C  0.17841932  0.84126244  0.12120659    -0.03300
C1040       C  0.16631098  0.81774350  0.15663972    -0.07700
C1041       C  0.17067122  0.77213522  0.16331283     0.05800
C1042       C  0.18756147  0.74971696  0.13304919    -0.02800
Br1043     Br  0.19412281  0.68704358  0.13826404    -0.02500
H1044       H  0.21343189  0.75521811  0.07580598     0.09700
H1045       H  0.15469391  0.83606983  0.18086699     0.07700
Br1046     Br  0.17072122  0.90377118  0.11790708    -0.02900
C1047       C  0.30908276  0.99429290  0.13769814    -0.09500
C1048       C  0.31203211  0.96745960  0.17661625     0.06700
C1049       C  0.29735916  0.92710536  0.17894751    -0.03300
C1050       C  0.28254926  0.91301660  0.14202473    -0.07700
C1051       C  0.28079528  0.93876943  0.10284571     0.05800
C1052       C  0.29341860  0.98039263  0.10122998    -0.02800
Br1053     Br  0.29123343  0.01793543  0.04877932    -0.02500
H1054       H  0.31911986  0.52571495  0.13466148     0.09700
H1055       H  0.27236713  0.88136337  0.14381131     0.07700
Br1056     Br  0.29708599  0.88776872  0.23060771    -0.02900
C1057       C  0.33123371  0.96007262  0.87180030    -0.09500
C1058       C  0.32005006  0.98998825  0.84066021     0.06700
C1059       C  0.29396478  0.00488743  0.84960600    -0.03300
C1060       C  0.27870664  0.98423482  0.88335022    -0.07700
C1061       C  0.28903984  0.95013673  0.91063722     0.05800
C1062       C  0.31618822  0.94016128  0.90624390    -0.02800
Br1063     Br  0.33455605  0.90114931  0.94700955    -0.02500
H1064       H  0.35172408  0.95091086  0.86905858     0.09700
H1065       H  0.25850491  0.99492695  0.88805537     0.07700
Br1066     Br  0.27859857  0.55650285  0.82145875    -0.02900
C1067       C  0.31981898  0.58816749  0.67502789    -0.09500
C1068       C  0.32614553  0.54236341  0.67762119     0.06700
C1069       C  0.31559126  0.51416523  0.64369675    -0.03300
C1070       C  0.30246004  0.53266438  0.60634505    -0.07700
C1071       C  0.29863531  0.57876702  0.60241383     0.05800
C1072       C  0.30701890  0.60650283  0.63775904    -0.02800
Br1073     Br  0.29963834  0.66926303  0.63939694    -0.02500
H1074       H  0.32430227  0.61043649  0.70267055     0.09700
H1075       H  0.29475174  0.51073471  0.58048853     0.07700
Br1076     Br  0.31540070  0.95039251  0.64757520    -0.02900
C1077       C  0.41023725  0.86685488  0.77906335    -0.09500
C1078       C  0.43311752  0.87257617  0.75280005     0.06700
C1079       C  0.43525909  0.91099726  0.72533709    -0.03300
C1080       C  0.41554274  0.94364709  0.72674421    -0.07700
C1081       C  0.39285601  0.93789420  0.75339824     0.05800
C1082       C  0.38984978  0.89815251  0.77810323    -0.02800
Br1083     Br  0.35714844  0.88176756  0.80566758    -0.02500
H1084       H  0.40781387  0.83704293  0.79931689     0.09700
H1085       H  0.41766471  0.97333157  0.70618423     0.07700
Br1086     Br  0.46359067  0.91923291  0.68291637    -0.02900
C1087       C  0.40916899  0.65617443  0.79483696    -0.09500
C1088       C  0.43501126  0.64257467  0.78337351     0.06700
C1089       C  0.44072953  0.59673555  0.79154279    -0.03300
C1090       C  0.42004627  0.56562954  0.79363421    -0.07700
C1091       C  0.39380750  0.57995828  0.79358303     0.05800
C1092       C  0.38868402  0.62554473  0.79894189    -0.02800
Br1093     Br  0.35360392  0.64757375  0.80873468    -0.02500
H1094       H  0.40428978  0.69081791  0.79948051     0.09700
H1095       H  0.42447111  0.53036510  0.79405979     0.07700
Br1096     Br  0.47472423  0.57504201  0.80991208    -0.02900
C1097       C  0.70931678  0.54207646  0.82164872    -0.09500
C1098       C  0.68147782  0.53948167  0.82320874     0.06700
C1099       C  0.66878982  0.55424822  0.86345262    -0.03300
C1100       C  0.68363698  0.56823985  0.90059049    -0.07700
C1101       C  0.71117945  0.56972038  0.89886764     0.05800
C1102       C  0.72402288  0.55723940  0.85861464    -0.02800
Br1103     Br  0.76122331  0.06555499  0.85004357    -0.02500
H1104       H  0.72014318  0.03499309  0.79108044     0.09700
H1105       H  0.67346215  0.57918548  0.93090867     0.07700
Br1106     Br  0.63121091  0.55960250  0.87006209    -0.02900
C1107       C  0.69406784  0.90582672  0.63115178    -0.09500
C1108       C  0.70288812  0.93073411  0.59387006     0.06700
C1109       C  0.69658958  0.97644282  0.59124256    -0.03300
C1110       C  0.68302871  0.99685694  0.62691401    -0.07700
C1111       C  0.67574977  0.97236060  0.66528075     0.05800
C1112       C  0.68078863  0.92636995  0.66693076    -0.02800
Br1113     Br  0.67098580  0.89072546  0.71824328    -0.02500
H1114       H  0.69863916  0.87068214  0.63352070     0.09700
H1115       H  0.67889420  0.03219916  0.62537335     0.07700
Br1116     Br  0.70555278  0.01232492  0.53961753    -0.02900
C1117       C  0.59259921  0.58293623  0.75684601    -0.09500
C1118       C  0.61048926  0.58289398  0.72060527     0.06700
C1119       C  0.60618614  0.61137395  0.68354991    -0.03300
C1120       C  0.58466317  0.64079272  0.68418355    -0.07700
C1121       C  0.56786148  0.64289337  0.72216749     0.05800
C1122       C  0.57172082  0.61288317  0.75823058    -0.02800
Br1123     Br  0.55081624  0.61433331  0.81251722    -0.02500
H1124       H  0.59568783  0.56089283  0.78540166     0.09700
H1125       H  0.58189187  0.66377053  0.65629759     0.07700
Br1126     Br  0.63028642  0.61331144  0.63354785    -0.02900
C1127       C  0.60852396  0.91069111  0.78774358    -0.09500
C1128       C  0.60655389  0.94571357  0.75588852     0.06700
C1129       C  0.58456259  0.94531733  0.72602749     0.02300
C1130       C  0.56722802  0.90920755  0.72606512    -0.07700
C1131       C  0.56959777  0.87457199  0.75747738     0.05800
C1132       C  0.58985007  0.87647275  0.78976650    -0.02800
Br1133     Br  0.59212325  0.83430328  0.83847485    -0.02500
H1134       H  0.62467375  0.90933603  0.81146460     0.09700
H1135       H  0.55096683  0.90891102  0.70233230     0.07700
Br1136     Br  0.57373663  0.99376806  0.68785732    -0.02900
C1137       C  0.77756119  0.72903508  0.88843395    -0.09500
C1138       C  0.79064020  0.70079973  0.91895436     0.06700
C1139       C  0.81834111  0.69918961  0.91795853    -0.03300
C1140       C  0.83183101  0.72024692  0.88298669    -0.07700
C1141       C  0.81840035  0.74054947  0.84678347     0.05800
C1142       C  0.79131664  0.75000332  0.85312397    -0.02800
Br1143     Br  0.77317921  0.79709425  0.82215595    -0.02500
H1144       H  0.75652424  0.73429619  0.89155061     0.09700
H1145       H  0.85299860  0.71784018  0.88240899     0.07700
Br1146     Br  0.83913280  0.66868982  0.96268029    -0.02900
C1147       C  0.81870243  0.82665978  0.67800139    -0.09500
C1148       C  0.82340746  0.78066221  0.67940595     0.06700
C1149       C  0.81317770  0.75379728  0.64472880    -0.03300
C1150       C  0.79850458  0.77302389  0.60938502    -0.07700
C1151       C  0.79365694  0.81918188  0.60792076     0.05800
C1152       C  0.80398429  0.84600715  0.64294905    -0.02800
Br1153     Br  0.79635268  0.90842278  0.64770804    -0.02500
H1154       H  0.82553479  0.84742828  0.70554051     0.09700
H1155       H  0.79074904  0.75173671  0.58303052     0.07700
Br1156     Br  0.81806164  0.69057526  0.64553465    -0.02900
C1157       C  0.20487583  0.78157383  0.88868301    -0.09500
C1158       C  0.20023250  0.82696870  0.89755116     0.06700
C1159       C  0.18122268  0.84963764  0.87087303    -0.03300
C1160       C  0.16801869  0.82708930  0.83614719    -0.07700
C1161       C  0.17358079  0.78247759  0.82664531     0.05800
C1162       C  0.19189397  0.75949844  0.85356109    -0.02800
Br1163     Br  0.20001448  0.69799155  0.84304838    -0.02500
H1164       H  0.21895740  0.76305800  0.90877555     0.09700
H1165       H  0.15430150  0.84514004  0.81484901     0.07700
Br1166     Br  0.17352344  0.91195954  0.87671774    -0.02900
C1167       C  0.20048987  0.68948050  0.67417807    -0.09500
C1168       C  0.18515044  0.72816696  0.66792444     0.06700
C1169       C  0.18891533  0.75260033  0.62705803    -0.03300
C1170       C  0.20411423  0.73412152  0.59191271    -0.07700
C1171       C  0.21603412  0.69235829  0.59692906     0.05800
C1172       C  0.21487910  0.67078283  0.63900882    -0.02800
Br1173     Br  0.23235155  0.61522604  0.65056459    -0.02500
H1174       H  0.20011317  0.67195360  0.70627663     0.09700
H1175       H  0.20642061  0.75219951  0.56036805     0.07700
Br1176     Br  0.17796829  0.81310030  0.61790956    -0.02900
C1177       C  0.10698164  0.85057858  0.70777088    -0.09500
C1178       C  0.10405436  0.81164129  0.73394852     0.06700
C1179       C  0.08057269  0.80670605  0.75967873    -0.03300
C1180       C  0.06232398  0.84158053  0.76187860    -0.07700
C1181       C  0.06562869  0.88052747  0.73631029     0.05800
C1182       C  0.08775661  0.88394275  0.70758650    -0.02800
Br1183     Br  0.09233135  0.93259936  0.66609109    -0.02500
H1184       H  0.12443001  0.85550677  0.68723857     0.09700
H1185       H  0.04496028  0.83782839  0.78296260     0.07700
Br1186     Br  0.06976328  0.75257514  0.78860532    -0.02900
C1187       C  0.08220873  0.62207742  0.80110882    -0.09500
C1188       C  0.07023663  0.60976839  0.76010511     0.06700
C1189       C  0.07906857  0.62865843  0.71928485    -0.03300
C1190       C  0.09909230  0.66003150  0.71994728    -0.07700
C1191       C  0.11183316  0.67158863  0.76056799     0.05800
C1192       C  0.10321961  0.65239595  0.80148534    -0.02800
Br1193     Br  0.12008936  0.66532169  0.85790332    -0.02500
H1194       H  0.07553295  0.60737044  0.83262130     0.09700
H1195       H  0.10511810  0.67493184  0.68812678     0.07700
Br1196     Br  0.06481992  0.61200200  0.66148339    -0.02900
C1197       C  0.92722710  0.63905072  0.78609886    -0.09500
C1198       C  0.93326322  0.62046381  0.74425597     0.06700
C1199       C  0.91928332  0.63421969  0.70554363    -0.03300
C1200       C  0.89870486  0.66533667  0.70966846    -0.07700
C1201       C  0.89165583  0.68244759  0.75228211     0.05800
C1202       C  0.90681607  0.66957012  0.79060266    -0.02800
Br1203     Br  0.90193171  0.69165154  0.85079159    -0.02500
H1204       H  0.93817344  0.62876688  0.81582669     0.09700
H1205       H  0.88766118  0.67499405  0.67988191     0.07700
Br1206     Br  0.92755623  0.61054572  0.64702419    -0.02900
C1207       C  0.89083853  0.85006765  0.72320326    -0.09500
C1208       C  0.88976968  0.82631076  0.76419745     0.06700
C1209       C  0.90887441  0.83491553  0.79781679    -0.03300
C1210       C  0.92873152  0.86590332  0.78945447    -0.07700
C1211       C  0.92962705  0.88944624  0.74862057     0.05800
C1212       C  0.91033509  0.88193568  0.71550411    -0.02800
Br1213     Br  0.90974856  0.91480162  0.65978908    -0.02500
H1214       H  0.87627911  0.84415895  0.69716265     0.09700
H1215       H  0.94341154  0.87222994  0.81524677     0.07700
Br1216     Br  0.90988266  0.80546343  0.85532757    -0.02900
loop_ 
_geom_bond_atom_site_label_1 
_geom_bond_atom_site_label_2 
_geom_bond_distance 
_geom_bond_site_symmetry_2 
_ccdc_geom_bond_type 
N1            C6   1.351       .  A
N1            C5   1.355   1_455  A
N1           H33   1.035   1_455  S
N2           C10   1.348       .  A
N2          C617   1.349       .  A
N3            C8   1.354   1_655  A
N3            C7   1.350       .  A
N3           H34   1.038       .  S
N4           C12   1.352       .  A
N4          C619   1.351       .  A
C5           C13   1.385       .  A
C5           C21   1.413       .  A
C6           C22   1.419       .  A
C6           C14   1.390       .  A
C7           C15   1.385       .  A
C7           C24   1.410       .  A
C8           C23   1.419       .  A
C8           C16   1.389       .  A
C9          N610   1.349       .  A
C9           C21   1.409       .  A
C9           C17   1.386       .  A
C10          C24   1.407       .  A
C10          C18   1.387       .  A
C11         N612   1.351   1_545  A
C11          C19   1.387       .  A
C11          C22   1.415       .  A
C12          C20   1.386       .  A
C12          C23   1.416       .  A
C13          C14   1.374   1_655  A
C13          H25   1.082       .  S
C14          H26   1.082       .  S
C15          C16   1.377   1_655  A
C15          H27   1.082       .  S
C16          H28   1.082       .  S
C17         C626   1.370   1_545  A
C17          H29   1.082       .  S
C18         C625   1.370       .  A
C18          H30   1.082       .  S
C19         C628   1.373   1_545  A
C19          H31   1.082       .  S
C20         C627   1.373       .  A
C20          H32   1.082       .  S
C21         C590   1.482       .  S
C22         C580   1.481       .  S
C23         C573   1.497       .  S
C24         C603   1.475       .  S
C35          C36   1.532       .  S
C35          C41   1.523       .  S
C35          C39   1.550       .  S
C35         C560   1.536       .  S
C36          H43   1.088       .  S
C36          C37   1.360       .  D
C37          C38   1.546       .  S
C37         C583   1.483       .  S
C38          C42   1.543       .  S
C38          C40   1.541       .  S
C38          H44   1.106       .  S
C39          H45   1.078       .  S
C39          C40   1.377       .  D
C40         C570   1.502       .  S
C41          H46   1.087       .  S
C41          C42   1.359       .  D
C42         C553   1.477       .  S
C47          C48   1.539       .  S
C47          C53   1.535       .  S
C47          C51   1.540       .  S
C47         C533   1.532       .  S
C48          H55   1.086       .  S
C48          C49   1.358       .  D
C49          C50   1.545       .  S
C49         C593   1.493       .  S
C50          C54   1.551       .  S
C50          C52   1.535       .  S
C50          H56   1.111       .  S
C51          H57   1.085       .  S
C51          C52   1.368       .  D
C52         C600   1.480       .  S
C53          H58   1.080       .  S
C53          C54   1.364       .  D
C54         C540   1.487       .  S
C59          C60   1.530       .  S
C59         C673   1.537       .  S
C59         C671   1.549   1_545  S
C59         C490   1.540       .  S
C60          H67   1.087       .  S
C60          C61   1.364       .  D
C61         C670   1.541       .  S
C61         C510   1.478       .  S
C62          C66   1.532       .  S
C62          C64   1.542       .  S
C62         C669   1.541       .  S
C62          H68   1.103       .  S
C63         C667   1.549       .  S
C63          H69   1.084       .  S
C63          C64   1.379       .  D
C64         C520   1.509       .  S
C65         C667   1.537       .  S
C65          H70   1.082       .  S
C65          C66   1.358       .  D
C66         C503   1.471       .  S
N71          C76   1.353       .  A
N71          C75   1.352       .  A
N71         H103   1.041       .  S
N72          C79   1.354       .  A
N72          C80   1.351       .  A
N73          C78   1.354       .  A
N73          C77   1.355       .  A
N73         H104   1.042       .  S
N74          C81   1.352       .  A
N74          C82   1.350       .  A
C75          C83   1.385       .  A
C75          C91   1.411       .  A
C76          C92   1.418       .  A
C76          C84   1.389       .  A
C77          C85   1.386       .  A
C77          C94   1.415       .  A
C78          C93   1.417       .  A
C78          C86   1.387       .  A
C79          C91   1.413       .  A
C79          C87   1.384       .  A
C80          C94   1.418       .  A
C80          C88   1.388       .  A
C81          C89   1.386       .  A
C81          C92   1.417       .  A
C82          C90   1.388       .  A
C82          C93   1.416       .  A
C83          C84   1.376       .  A
C83          H95   1.082       .  S
C84          H96   1.082       .  S
C85          C86   1.378       .  A
C85          H97   1.082       .  S
C86          H98   1.083       .  S
C87          C88   1.373       .  A
C87          H99   1.082       .  S
C88         H100   1.082       .  S
C89          C90   1.373       .  A
C89         H101   1.082       .  S
C90         H102   1.081       .  S
C91         C470   1.498       .  S
C92         C523   1.492       .  S
C93         C513   1.489       .  S
C94         C480   1.531       .  S
C105        C106   1.534       .  S
C105        C719   1.531       .  S
C105        C717   1.538   1_545  S
C105        C460   1.538       .  S
C106        H113   1.086       .  S
C106        C107   1.356       .  D
C107        C716   1.540       .  S
C107        C483   1.481       .  S
C108        C112   1.559       .  S
C108        C110   1.551       .  S
C108        C715   1.540       .  S
C108        H114   1.109       .  S
C109        C713   1.538       .  S
C109        H115   1.084       .  S
C109        C110   1.369       .  D
C110        C473   1.485       .  S
C111        C713   1.531       .  S
C111        H116   1.083       .  S
C111        C112   1.371       .  D
C112        C450   1.512       .  S
O117       Ni125   1.922       .  S
O117        C127   1.281       .  A
O118       Ni125   1.921   1_554  S
O118        C128   1.282       .  A
O119       Ni125   1.920       .  S
O119        C129   1.283       .  A
O120       Ni125   1.915   1_554  S
O120        C130   1.281       .  A
O121       Ni126   1.919   1_554  S
O121        C130   1.279       .  A
O122       Ni126   1.921       .  S
O122        C129   1.280       .  A
O123       Ni126   1.934   1_554  S
O123        C128   1.284       .  A
O124       Ni126   1.933       .  S
O124        C127   1.285       .  A
Ni125      Ni126   2.382       .  S
C127        C453   1.497       .  S
C128        C430   1.500       .  S
C129        C550   1.493       .  S
C130        C443   1.470       .  S
N131        C136   1.355   1_455  A
N131        C135   1.351       .  A
N131        H163   1.040       .  S
N132        C140   1.351   1_565  A
N132        C747   1.350       .  A
N133        C138   1.351       .  A
N133        C137   1.353   1_655  A
N133        H164   1.042   1_655  S
N134        C142   1.350   1_565  A
N134        C749   1.349       .  A
C135        C143   1.387       .  A
C135        C151   1.414       .  A
C136        C152   1.416       .  A
C136        C144   1.387       .  A
C137        C145   1.386       .  A
C137        C154   1.413       .  A
C138        C153   1.416       .  A
C138        C146   1.388       .  A
C139        N740   1.350       .  A
C139        C151   1.409       .  A
C139        C147   1.386       .  A
C140        C154   1.413       .  A
C140        C148   1.387       .  A
C141        N742   1.349       .  A
C141        C149   1.385       .  A
C141        C152   1.409       .  A
C142        C150   1.388       .  A
C142        C153   1.417       .  A
C143        C144   1.379   1_455  A
C143        H155   1.082       .  S
C144        H156   1.082       .  S
C145        C146   1.379   1_455  A
C145        H157   1.082       .  S
C146        H158   1.082       .  S
C147        C756   1.374       .  A
C147        H159   1.082       .  S
C148        C755   1.374   1_545  A
C148        H160   1.082       .  S
C149        C758   1.374       .  A
C149        H161   1.081       .  S
C150        C757   1.374   1_545  A
C150        H162   1.082       .  S
C151        C393   1.480       .  S
C152        C423   1.488       .  S
C153        C410   1.496       .  S
C154        C400   1.493       .  S
C165        C166   1.539       .  S
C165        C171   1.542       .  S
C165        C169   1.537       .  S
C165        C383   1.542       .  S
C166        H173   1.082       .  S
C166        C167   1.369       .  D
C167        C168   1.552       .  S
C167        C433   1.494       .  S
C168        C172   1.538       .  S
C168        C170   1.548       .  S
C168        H174   1.108       .  S
C169        H175   1.081       .  S
C169        C170   1.370       .  D
C170        C390   1.504       .  S
C171        H176   1.086       .  S
C171        C172   1.358       .  D
C172        C403   1.484       .  S
C177        C178   1.543       .  S
C177        C183   1.526       .  S
C177        C181   1.550       .  S
C177        C373   1.545       .  S
C178        H185   1.082       .  S
C178        C179   1.359       .  D
C179        C180   1.534       .  S
C179        C360   1.479       .  S
C180        C184   1.538       .  S
C180        C182   1.554       .  S
C180        H186   1.103       .  S
C181        H187   1.080       .  S
C181        C182   1.386       .  D
C182        C420   1.518       .  S
C183        H188   1.083       .  S
C183        C184   1.355       .  D
C184        C413   1.491       .  S
C189        C195   1.536   1_565  S
C189        C798   1.536       .  S
C189        C801   1.549       .  S
C189        C330   1.546   1_565  S
C190        C797   1.536       .  S
C190        H197   1.081       .  S
C190        C191   1.363       .  D
C191        C192   1.551       .  S
C191        C320   1.488       .  S
C192        C194   1.543       .  S
C192        C804   1.541       .  S
C192        H198   1.107       .  S
C193        C797   1.549       .  S
C193        H199   1.085       .  S
C193        C194   1.380       .  D
C194        C350   1.507       .  S
C195        H200   1.086       .  S
C195        C196   1.358       .  D
C196        C800   1.541   1_545  S
C196        C340   1.488       .  S
C201        C202   1.527       .  S
C201        C207   1.523       .  S
C201        C813   1.554       .  S
C201        C440   1.532       .  S
C202        H209   1.087       .  S
C202        C811   1.356       .  D
C203        C204   1.540       .  S
C203        C810   1.356       .  D
C203        C290   1.483   1_565  S
C204        C206   1.540   1_565  S
C204        C816   1.549       .  S
C204        H210   1.102       .  S
C205        C809   1.554   1_545  S
C205        H211   1.081       .  S
C205        C206   1.380       .  D
C206        C310   1.491       .  S
C207        H212   1.083       .  S
C207        C208   1.368       .  D
C208        C812   1.550       .  S
C208        C303   1.514       .  S
N213        C218   1.355       .  A
N213        C217   1.356       .  A
N213        H245   1.043       .  S
N214        C221   1.349       .  A
N214        C222   1.351       .  A
N215        C220   1.352       .  A
N215        C219   1.355       .  A
N215        H246   1.043       .  S
N216        C223   1.356       .  A
N216        C224   1.356       .  A
C217        C225   1.387       .  A
C217        C233   1.423       .  A
C218        C234   1.423       .  A
C218        C226   1.388       .  A
C219        C227   1.387       .  A
C219        C236   1.418       .  A
C220        C235   1.418       .  A
C220        C228   1.389       .  A
C221        C233   1.416       .  A
C221        C229   1.388       .  A
C222        C236   1.410       .  A
C222        C230   1.385       .  A
C223        C231   1.387       .  A
C223        C234   1.422       .  A
C224        C232   1.386       .  A
C224        C235   1.421       .  A
C225        C226   1.377       .  A
C225        H237   1.082       .  S
C226        H238   1.081       .  S
C227        C228   1.374       .  A
C227        H239   1.082       .  S
C228        H240   1.082       .  S
C229        C230   1.368       .  A
C229        H241   1.082       .  S
C230        H242   1.080       .  S
C231        C232   1.371       .  A
C231        H243   1.082       .  S
C232        H244   1.082       .  S
C233        C300   1.498       .  S
C234        C353   1.499       .  S
C235        C343   1.490       .  S
C236        C313   1.489       .  S
O247       Ni255   1.910       .  S
O247        C257   1.279       .  A
O248       Ni255   1.907   1_556  S
O248        C258   1.279       .  A
O249       Ni255   1.920       .  S
O249        C259   1.283       .  A
O250       Ni255   1.918   1_556  S
O250        C260   1.281       .  A
O251       Ni256   1.906   1_556  S
O251        C260   1.279       .  A
O252       Ni256   1.924       .  S
O252        C259   1.282       .  A
O253       Ni256   1.929   1_556  S
O253        C258   1.284       .  A
O254       Ni256   1.929       .  S
O254        C257   1.284       .  A
Ni255      Ni256   2.388       .  S
C257        C370   1.478       .  S
C258        C493   1.478       .  S
C259        C333   1.486       .  S
C260        C530   1.473       .  S
O261       Ni269   1.922       .  S
O261        C271   1.282       .  A
O262       Ni269   1.920       .  S
O262        C272   1.282       .  A
O263       Ni269   1.917       .  S
O263        C273   1.282       .  A
O264       Ni269   1.919       .  S
O264        C274   1.280       .  A
O265       Ni270   1.911       .  S
O265        C274   1.280       .  A
O266       Ni270   1.910       .  S
O266        C273   1.279       .  A
O267       Ni270   1.911       .  S
O267        C272   1.279       .  A
O268       Ni270   1.920       .  S
O268        C271   1.282       .  A
Ni269      Ni270   2.390       .  S
C271        C380   1.487       .  S
C272        C463   1.475       .  S
C273        C293   1.470       .  S
C274        C563   1.467       .  S
O275       Ni283   1.919       .  S
O275        C285   1.281       .  A
O276       Ni283   1.915       .  S
O276        C286   1.280       .  A
O277       Ni283   1.930       .  S
O277        C287   1.284       .  A
O278       Ni283   1.930       .  S
O278        C288   1.284       .  A
O279       Ni284   1.927       .  S
O279        C288   1.282       .  A
O280       Ni284   1.928       .  S
O280        C287   1.283       .  A
O281       Ni284   1.918       .  S
O281        C286   1.283       .  A
O282       Ni284   1.912       .  S
O282        C285   1.280       .  A
Ni283      Ni284   2.386       .  S
C285        C500   1.473       .  S
C286        C363   1.483       .  S
C287        C543   1.493       .  S
C288        C323   1.486       .  S
C289        C290   1.403   1_565  A
C289        C294   1.405   1_565  A
C289        H904   1.083       .  S
C290        C291   1.416       .  A
C291        C292   1.391       .  A
C291       Br298   1.918       .  S
C292        C293   1.395       .  A
C292        H297   1.084       .  S
C293        C294   1.411       .  A
C294       Br295   1.919   1_545  S
H296        C897   1.083       .  S
C299        C300   1.401       .  A
C299        C304   1.404       .  A
C299        H306   1.084       .  S
C300        C301   1.408       .  A
C301        C302   1.391       .  A
C301       Br308   1.926       .  S
C302        C303   1.414       .  A
C302        H307   1.080       .  S
C303        C304   1.426       .  A
C304       Br305   1.916       .  S
C309        C310   1.409       .  A
C309        C314   1.397       .  A
C309        H316   1.082       .  S
C310        C311   1.413       .  A
C311        C312   1.400       .  A
C311       Br318   1.920       .  S
C312        C313   1.404       .  A
C312        H317   1.084       .  S
C313        C314   1.405       .  A
C314       Br315   1.920       .  S
C319        C320   1.405       .  A
C319        C324   1.401       .  A
C319        H326   1.084       .  S
C320        C321   1.407       .  A
C321        C322   1.408       .  A
C321       Br936   1.916       .  S
C322        C323   1.409       .  A
C322        H327   1.083       .  S
C323        C324   1.409       .  A
C324       Br325   1.920       .  S
Br328       C929   1.916   1_545  S
C329        C330   1.412       .  A
C329        C334   1.399       .  A
C329        H336   1.082       .  S
C330        C331   1.420   1_545  A
C331        C332   1.406   1_565  A
C331       Br946   1.922       .  S
C332        C333   1.405       .  A
C332        H337   1.083       .  S
C333        C334   1.409       .  A
C334       Br335   1.922       .  S
Br338       C939   1.922       .  S
C339        C340   1.404       .  A
C339        C344   1.406       .  A
C339        H346   1.083       .  S
C340        C341   1.416       .  A
C341        C342   1.394       .  A
C341       Br348   1.922       .  S
C342        C343   1.398       .  A
C342        H347   1.084       .  S
C343        C344   1.410       .  A
C344       Br345   1.916       .  S
C349        C350   1.412       .  A
C349        C354   1.407       .  A
C349        H356   1.082       .  S
C350        C351   1.420       .  A
C351        C352   1.399       .  A
C351       Br358   1.917       .  S
C352        C353   1.400       .  A
C352        H357   1.084       .  S
C353        C354   1.410       .  A
C354       Br355   1.918       .  S
C359        C360   1.401       .  A
C359        C364   1.403       .  A
C359        H366   1.084       .  S
C360        C361   1.409       .  A
C361        C362   1.395       .  A
C361       Br368   1.916       .  S
C362        C363   1.403       .  A
C362        H367   1.083       .  S
C363        C364   1.416       .  A
C364       Br365   1.920       .  S
C369        C370   1.400       .  A
C369        C374   1.403       .  A
C369        H376   1.083       .  S
C370        C371   1.404       .  A
C371        C372   1.399       .  A
C371       Br378   1.922       .  S
C372        C373   1.416       .  A
C372        H377   1.075       .  S
C373        C374   1.425       .  A
C374       Br375   1.920       .  S
C379        C380   1.405       .  A
C379        C384   1.405       .  A
C379        H386   1.083       .  S
C380        C381   1.408       .  A
C381        C382   1.397       .  A
C381       Br388   1.923       .  S
C382        C383   1.414       .  A
C382        H387   1.082       .  S
C383        C384   1.421       .  A
C384       Br385   1.921       .  S
C389        C390   1.410       .  A
C389        C394   1.394       .  A
C389        H396   1.077       .  S
C390        C391   1.427       .  A
C391        C392   1.401       .  A
C391       Br398   1.924       .  S
C392        C393   1.397       .  A
C392        H397   1.084       .  S
C393        C394   1.400       .  A
C394       Br395   1.920       .  S
C399        C400   1.400       .  A
C399        C404   1.396       .  A
C399        H406   1.084       .  S
C400        C401   1.412       .  A
C401        C402   1.405       .  A
C401       Br408   1.919       .  S
C402        C403   1.404       .  A
C402        H407   1.083       .  S
C403        C404   1.410       .  A
C404       Br405   1.910       .  S
C409        C410   1.404       .  A
C409        C414   1.394       .  A
C409        H416   1.083       .  S
C410        C411   1.413       .  A
C411        C412   1.398       .  A
C411       Br418   1.922       .  S
C412        C413   1.406       .  A
C412        H417   1.081       .  S
C413        C414   1.416       .  A
C414       Br415   1.926       .  S
C419        C420   1.418       .  A
C419        C424   1.398       .  A
C419        H426   1.077       .  S
C420        C421   1.425       .  A
C421        C422   1.404       .  A
C421       Br428   1.917       .  S
C422        C423   1.400       .  A
C422        H427   1.084       .  S
C423        C424   1.399       .  A
C424       Br425   1.919       .  S
C429        C430   1.412       .  A
C429        C434   1.405       .  A
C429        H436   1.083       .  S
C430        C431   1.417       .  A
C431        C432   1.402       .  A
C431       Br438   1.921       .  S
C432        C433   1.402       .  A
C432        H437   1.078       .  S
C433        C434   1.409       .  A
C434       Br435   1.919       .  S
C439        C440   1.411       .  A
C439        C444   1.404       .  A
C439       H1054   1.078       .  S
C440        C441   1.425       .  A
C441        C442   1.393       .  A
C441       Br448   1.928       .  S
C442        C443   1.394       .  A
C442        H447   1.084       .  S
C443        C444   1.407       .  A
C444       Br445   1.918       .  S
H446       C1047   1.078   1_545  S
C449        C450   1.405       .  A
C449        C454   1.404       .  A
C449        H456   1.079       .  S
C450        C451   1.422       .  A
C451        C452   1.405       .  A
C451      Br1066   1.924       .  S
C452        C453   1.405       .  A
C452        H457   1.083       .  S
C453        C454   1.416       .  A
C454       Br455   1.921       .  S
Br458      C1059   1.924       .  S
C459        C460   1.416       .  A
C459        C464   1.392       .  A
C459        H466   1.081       .  S
C460        C461   1.420       .  A
C461        C462   1.404       .  A
C461      Br1076   1.920   1_545  S
C462        C463   1.404       .  A
C462        H467   1.084       .  S
C463        C464   1.404       .  A
C464       Br465   1.924       .  S
Br468      C1069   1.920       .  S
C469        C470   1.406       .  A
C469        C474   1.398       .  A
C469        H476   1.083       .  S
C470        C471   1.414       .  A
C471        C472   1.402       .  A
C471       Br478   1.921       .  S
C472        C473   1.404       .  A
C472        H477   1.084       .  S
C473        C474   1.407       .  A
C474       Br475   1.912       .  S
C479        C480   1.414       .  A
C479        C484   1.394       .  A
C479        H486   1.079       .  S
C480        C481   1.428       .  A
C481        C482   1.408       .  A
C481       Br488   1.923       .  S
C482        C483   1.400       .  A
C482        H487   1.083       .  S
C483        C484   1.404       .  A
C484       Br485   1.921       .  S
C489        C490   1.416       .  A
C489        C494   1.401       .  A
C489       H1104   1.076       .  S
C490        C491   1.422       .  A
C491        C492   1.398       .  A
C491       Br498   1.924       .  S
C492        C493   1.400       .  A
C492        H497   1.084       .  S
C493        C494   1.406       .  A
C494      Br1103   1.922       .  S
Br495      C1102   1.922       .  S
H496       C1097   1.076       .  S
C499        C500   1.403       .  A
C499        C504   1.396       .  A
C499        H506   1.084       .  S
C500        C501   1.412       .  A
C501        C502   1.399       .  A
C501       Br508   1.920       .  S
C502        C503   1.399       .  A
C502        H507   1.084       .  S
C503        C504   1.406       .  A
C504       Br505   1.919       .  S
C509        C510   1.402       .  A
C509        C514   1.391       .  A
C509        H516   1.083       .  S
C510        C511   1.405       .  A
C511        C512   1.405       .  A
C511       Br518   1.916       .  S
C512        C513   1.409       .  A
C512        H517   1.083       .  S
C513        C514   1.408       .  A
C514       Br515   1.921       .  S
C519        C520   1.414       .  A
C519        C524   1.401       .  A
C519        H526   1.080       .  S
C520        C521   1.424       .  A
C521        C522   1.398       .  A
C521       Br528   1.921       .  S
C522        C523   1.398       .  A
C522        H527   1.084       .  S
C523        C524   1.405       .  A
C524       Br525   1.919       .  S
C529        C530   1.404       .  A
C529        C534   1.402       .  A
C529        H536   1.083       .  S
C530        C531   1.407       .  A
C531        C532   1.389       .  A
C531       Br538   1.923       .  S
C532        C533   1.407       .  A
C532        H537   1.077       .  S
C533        C534   1.416       .  A
C534       Br535   1.920       .  S
C539        C540   1.403       .  A
C539        C544   1.403       .  A
C539        H546   1.084       .  S
C540        C541   1.406       .  A
C541        C542   1.407       .  A
C541       Br548   1.916       .  S
C542        C543   1.410       .  A
C542        H547   1.083       .  S
C543        C544   1.414       .  A
C544       Br545   1.921       .  S
C549        C550   1.409       .  A
C549        C554   1.399       .  A
C549        H556   1.083       .  S
C550        C551   1.420       .  A
C551        C552   1.402       .  A
C551       Br558   1.921       .  S
C552        C553   1.399       .  A
C552        H557   1.084       .  S
C553        C554   1.405       .  A
C554       Br555   1.920       .  S
C559        C560   1.411       .  A
C559        C564   1.387       .  A
C559        H566   1.084       .  S
C560        C561   1.424       .  A
C561        C562   1.406       .  A
C561       Br568   1.920       .  S
C562        C563   1.401       .  A
C562        H567   1.084       .  S
C563        C564   1.402       .  A
C564       Br565   1.921       .  S
C569        C570   1.409       .  A
C569        C574   1.399       .  A
C569        H576   1.082       .  S
C570        C571   1.420       .  A
C571        C572   1.400       .  A
C571       Br578   1.916       .  S
C572        C573   1.402       .  A
C572        H577   1.084       .  S
C573        C574   1.410       .  A
C574       Br575   1.920       .  S
C579        C580   1.406       .  A
C579        C584   1.404       .  A
C579        H586   1.083       .  S
C580        C581   1.404       .  A
C581        C582   1.387       .  A
C581       Br588   1.922       .  S
C582        C583   1.408       .  A
C582        H587   1.084       .  S
C583        C584   1.407       .  A
C584       Br585   1.915       .  S
C589        C590   1.390       .  A
C589        C594   1.390       .  A
C589        H596   1.084       .  S
C590        C591   1.408       .  A
C591        C592   1.407       .  A
C591       Br598   1.915       .  S
C592        C593   1.405       .  A
C592        H597   1.083       .  S
C593        C594   1.423       .  A
C594       Br595   1.913       .  S
C599        C600   1.405       .  A
C599        C604   1.396       .  A
C599        H606   1.083       .  S
C600        C601   1.414       .  A
C601        C602   1.394       .  A
C601       Br608   1.914       .  S
C602        C603   1.398       .  A
C602        H607   1.084       .  S
C603        C604   1.404       .  A
C604       Br605   1.918       .  S
N609        C614   1.351       .  A
N609        C613   1.355   1_455  A
N609        H641   1.035   1_455  S
N610        C618   1.348   1_545  A
N611        C616   1.354   1_655  A
N611        C615   1.350       .  A
N611        H642   1.038       .  S
N612        C620   1.352       .  A
C613        C621   1.385       .  A
C613        C629   1.413       .  A
C614        C630   1.419       .  A
C614        C622   1.390       .  A
C615        C623   1.385       .  A
C615        C632   1.410       .  A
C616        C631   1.419       .  A
C616        C624   1.389       .  A
C617        C629   1.409       .  A
C617        C625   1.386       .  A
C618        C632   1.407       .  A
C618        C626   1.387       .  A
C619        C627   1.387       .  A
C619        C630   1.415       .  A
C620        C628   1.386       .  A
C620        C631   1.416       .  A
C621        C622   1.374   1_655  A
C621        H633   1.082       .  S
C622        H634   1.082       .  S
C623        C624   1.377   1_655  A
C623        H635   1.082       .  S
C624        H636   1.082       .  S
C625        H637   1.082       .  S
C626        H638   1.082       .  S
C627        H639   1.082       .  S
C628        H640   1.082       .  S
C629       C1198   1.482       .  S
C630       C1188   1.481       .  S
C631       C1181   1.497       .  S
C632       C1211   1.475       .  S
C643        C644   1.532       .  S
C643        C649   1.523       .  S
C643        C647   1.550       .  S
C643       C1168   1.536       .  S
C644        H651   1.088       .  S
C644        C645   1.361       .  D
C645        C646   1.546       .  S
C645       C1191   1.483       .  S
C646        C650   1.543       .  S
C646        C648   1.541       .  S
C646        H652   1.106       .  S
C647        H653   1.078       .  S
C647        C648   1.377       .  D
C648       C1178   1.502       .  S
C649        H654   1.087       .  S
C649        C650   1.359       .  D
C650       C1161   1.477       .  S
C655        C656   1.539       .  S
C655        C661   1.535       .  S
C655        C659   1.540       .  S
C655       C1141   1.532       .  S
C656        H663   1.086       .  S
C656        C657   1.358       .  D
C657        C658   1.545       .  S
C657       C1201   1.493       .  S
C658        C662   1.551       .  S
C658        C660   1.535       .  S
C658        H664   1.111       .  S
C659        H665   1.085       .  S
C659        C660   1.368       .  D
C660       C1208   1.480       .  S
C661        H666   1.080       .  S
C661        C662   1.364       .  D
C662       C1148   1.487       .  S
C667        C668   1.530       .  S
C667       C1098   1.540       .  S
C668        H675   1.087       .  S
C668        C669   1.364       .  D
C669       C1118   1.478       .  S
C670        C674   1.532   1_545  S
C670        C672   1.542   1_545  S
C670        H676   1.103   1_545  S
C671        H677   1.084       .  S
C671        C672   1.379       .  D
C672       C1128   1.509       .  S
C673        H678   1.082   1_545  S
C673        C674   1.358   1_545  D
C674       C1111   1.471       .  S
N679        C684   1.353       .  A
N679        C683   1.352       .  A
N679        H711   1.041       .  S
N680        C687   1.354       .  A
N680        C688   1.351       .  A
N681        C686   1.354       .  A
N681        C685   1.355       .  A
N681        H712   1.042       .  S
N682        C689   1.352       .  A
N682        C690   1.350       .  A
C683        C691   1.385       .  A
C683        C699   1.411       .  A
C684        C700   1.418       .  A
C684        C692   1.389       .  A
C685        C693   1.386       .  A
C685        C702   1.415       .  A
C686        C701   1.417       .  A
C686        C694   1.387       .  A
C687        C699   1.413       .  A
C687        C695   1.384       .  A
C688        C702   1.418       .  A
C688        C696   1.388       .  A
C689        C697   1.386       .  A
C689        C700   1.417       .  A
C690        C698   1.388       .  A
C690        C701   1.416       .  A
C691        C692   1.376       .  A
C691        H703   1.082       .  S
C692        H704   1.082       .  S
C693        C694   1.378       .  A
C693        H705   1.082       .  S
C694        H706   1.083       .  S
C695        C696   1.373       .  A
C695        H707   1.082       .  S
C696        H708   1.082       .  S
C697        C698   1.373       .  A
C697        H709   1.082       .  S
C698        H710   1.081       .  S
C699       C1078   1.498       .  S
C700       C1131   1.492       .  S
C701       C1121   1.489       .  S
C702       C1088   1.531       .  S
C713        C714   1.534       .  S
C713       C1068   1.538       .  S
C714        H721   1.086       .  S
C714        C715   1.356       .  D
C715       C1091   1.481       .  S
C716        C720   1.559       .  S
C716        C718   1.551   1_545  S
C716        H722   1.109   1_545  S
C717        H723   1.084       .  S
C717        C718   1.369       .  D
C718       C1081   1.485       .  S
C719        H724   1.083       .  S
C719        C720   1.371       .  D
C720       C1058   1.512   1_545  S
O725       Ni733   1.922       .  S
O725        C735   1.281       .  A
O726       Ni733   1.921   1_554  S
O726        C736   1.282       .  A
O727       Ni733   1.920       .  S
O727        C737   1.283       .  A
O728       Ni733   1.915   1_554  S
O728        C738   1.281       .  A
O729       Ni734   1.919   1_554  S
O729        C738   1.279       .  A
O730       Ni734   1.921       .  S
O730        C737   1.280       .  A
O731       Ni734   1.934   1_554  S
O731        C736   1.284       .  A
O732       Ni734   1.933       .  S
O732        C735   1.285       .  A
Ni733      Ni734   2.382       .  S
C735       C1061   1.497       .  S
C736       C1038   1.500       .  S
C737       C1158   1.493       .  S
C738       C1051   1.470       .  S
N739        C744   1.355   1_455  A
N739        C743   1.351       .  A
N739        H771   1.040       .  S
N740        C748   1.351       .  A
N741        C746   1.351       .  A
N741        C745   1.353   1_655  A
N741        H772   1.042   1_655  S
N742        C750   1.350       .  A
C743        C751   1.387       .  A
C743        C759   1.414       .  A
C744        C760   1.416       .  A
C744        C752   1.387       .  A
C745        C753   1.386       .  A
C745        C762   1.413       .  A
C746        C761   1.416       .  A
C746        C754   1.388       .  A
C747        C759   1.409       .  A
C747        C755   1.386       .  A
C748        C762   1.413       .  A
C748        C756   1.387       .  A
C749        C757   1.385       .  A
C749        C760   1.409       .  A
C750        C758   1.388       .  A
C750        C761   1.417       .  A
C751        C752   1.379   1_455  A
C751        H763   1.082       .  S
C752        H764   1.082       .  S
C753        C754   1.379   1_455  A
C753        H765   1.082       .  S
C754        H766   1.082       .  S
C755        H767   1.082       .  S
C756        H768   1.082       .  S
C757        H769   1.081       .  S
C758        H770   1.082       .  S
C759       C1001   1.480       .  S
C760       C1031   1.488       .  S
C761       C1018   1.496       .  S
C762       C1008   1.493       .  S
C773        C774   1.539       .  S
C773        C779   1.542       .  S
C773        C777   1.537       .  S
C773        C991   1.542       .  S
C774        H781   1.082       .  S
C774        C775   1.369       .  D
C775        C776   1.552       .  S
C775       C1041   1.494       .  S
C776        C780   1.538       .  S
C776        C778   1.548       .  S
C776        H782   1.108       .  S
C777        H783   1.081       .  S
C777        C778   1.369       .  D
C778        C998   1.504       .  S
C779        H784   1.086       .  S
C779        C780   1.358       .  D
C780       C1011   1.484       .  S
C785        C786   1.543       .  S
C785        C791   1.526       .  S
C785        C789   1.550       .  S
C785        C981   1.545       .  S
C786        H793   1.082       .  S
C786        C787   1.359       .  D
C787        C788   1.534       .  S
C787        C968   1.479       .  S
C788        C792   1.538       .  S
C788        C790   1.554       .  S
C788        H794   1.103       .  S
C789        H795   1.080       .  S
C789        C790   1.386       .  D
C790       C1028   1.518       .  S
C791        H796   1.083       .  S
C791        C792   1.355       .  D
C792       C1021   1.491       .  S
C797        C803   1.536       .  S
C797        C938   1.546       .  S
C798        H805   1.081       .  S
C798        C799   1.363       .  D
C799        C800   1.551       .  S
C799        C928   1.489       .  S
C800        C802   1.543       .  S
C800        H806   1.107       .  S
C801        H807   1.085       .  S
C801        C802   1.380       .  D
C802        C958   1.507       .  S
C803        H808   1.086       .  S
C803        C804   1.358       .  D
C804        C948   1.488       .  S
C809        C810   1.527       .  S
C809        C815   1.523       .  S
C809       C1048   1.532       .  S
C810        H817   1.087       .  S
C811        C812   1.540       .  S
C811        C898   1.483       .  S
C812        C814   1.540       .  S
C812        H818   1.102       .  S
C813        H819   1.081       .  S
C813        C814   1.380       .  D
C814        C918   1.491       .  S
C815        H820   1.083       .  S
C815        C816   1.368       .  D
C816        C911   1.514       .  S
N821        C826   1.355       .  A
N821        C825   1.356       .  A
N821        H853   1.043       .  S
N822        C829   1.349       .  A
N822        C830   1.351       .  A
N823        C828   1.352       .  A
N823        C827   1.355       .  A
N823        H854   1.043       .  S
N824        C831   1.356       .  A
N824        C832   1.356       .  A
C825        C833   1.387       .  A
C825        C841   1.422       .  A
C826        C842   1.423       .  A
C826        C834   1.388       .  A
C827        C835   1.387       .  A
C827        C844   1.418       .  A
C828        C843   1.418       .  A
C828        C836   1.389       .  A
C829        C841   1.416       .  A
C829        C837   1.388       .  A
C830        C844   1.410       .  A
C830        C838   1.385       .  A
C831        C839   1.387       .  A
C831        C842   1.422       .  A
C832        C840   1.386       .  A
C832        C843   1.421       .  A
C833        C834   1.376       .  A
C833        H845   1.082       .  S
C834        H846   1.081       .  S
C835        C836   1.374       .  A
C835        H847   1.082       .  S
C836        H848   1.082       .  S
C837        C838   1.368       .  A
C837        H849   1.082       .  S
C838        H850   1.080       .  S
C839        C840   1.371       .  A
C839        H851   1.082       .  S
C840        H852   1.082       .  S
C841        C908   1.498       .  S
C842        C961   1.499       .  S
C843        C951   1.490       .  S
C844        C921   1.489       .  S
O855       Ni863   1.910       .  S
O855        C865   1.279       .  A
O856       Ni863   1.907   1_556  S
O856        C866   1.279       .  A
O857       Ni863   1.920       .  S
O857        C867   1.283       .  A
O858       Ni863   1.918   1_556  S
O858        C868   1.281       .  A
O859       Ni864   1.906   1_556  S
O859        C868   1.279       .  A
O860       Ni864   1.924       .  S
O860        C867   1.282       .  A
O861       Ni864   1.929   1_556  S
O861        C866   1.284       .  A
O862       Ni864   1.929       .  S
O862        C865   1.284       .  A
Ni863      Ni864   2.388       .  S
C865        C978   1.478       .  S
C866       C1101   1.478       .  S
C867        C941   1.486       .  S
C868       C1138   1.473       .  S
O869       Ni877   1.922       .  S
O869        C879   1.282       .  A
O870       Ni877   1.920       .  S
O870        C880   1.282       .  A
O871       Ni877   1.917       .  S
O871        C881   1.282       .  A
O872       Ni877   1.919       .  S
O872        C882   1.280       .  A
O873       Ni878   1.911       .  S
O873        C882   1.280       .  A
O874       Ni878   1.910       .  S
O874        C881   1.279       .  A
O875       Ni878   1.911       .  S
O875        C880   1.279       .  A
O876       Ni878   1.920       .  S
O876        C879   1.282       .  A
Ni877      Ni878   2.390       .  S
C879        C988   1.487       .  S
C880       C1071   1.475       .  S
C881        C901   1.470       .  S
C882       C1171   1.467       .  S
O883       Ni891   1.919       .  S
O883        C893   1.281       .  A
O884       Ni891   1.915       .  S
O884        C894   1.280       .  A
O885       Ni891   1.930       .  S
O885        C895   1.284       .  A
O886       Ni891   1.930       .  S
O886        C896   1.284       .  A
O887       Ni892   1.927       .  S
O887        C896   1.282       .  A
O888       Ni892   1.928       .  S
O888        C895   1.283       .  A
O889       Ni892   1.918       .  S
O889        C894   1.283       .  A
O890       Ni892   1.912       .  S
O890        C893   1.280       .  A
Ni891      Ni892   2.386       .  S
C893       C1108   1.473       .  S
C894        C971   1.483       .  S
C895       C1151   1.493       .  S
C896        C931   1.486       .  S
C897        C898   1.403       .  A
C897        C902   1.405       .  A
C898        C899   1.416       .  A
C899        C900   1.391       .  A
C899       Br906   1.918       .  S
C900        C901   1.395       .  A
C900        H905   1.084       .  S
C901        C902   1.411       .  A
C902       Br903   1.919       .  S
C907        C908   1.401       .  A
C907        C912   1.404       .  A
C907        H914   1.084       .  S
C908        C909   1.408       .  A
C909        C910   1.391       .  A
C909       Br916   1.926       .  S
C910        C911   1.414       .  A
C910        H915   1.080       .  S
C911        C912   1.426       .  A
C912       Br913   1.916       .  S
C917        C918   1.409       .  A
C917        C922   1.397       .  A
C917        H924   1.082       .  S
C918        C919   1.413       .  A
C919        C920   1.400       .  A
C919       Br926   1.920       .  S
C920        C921   1.404       .  A
C920        H925   1.084       .  S
C921        C922   1.405       .  A
C922       Br923   1.920       .  S
C927        C928   1.405       .  A
C927        C932   1.401       .  A
C927        H934   1.084       .  S
C928        C929   1.407       .  A
C929        C930   1.408       .  A
C930        C931   1.409       .  A
C930        H935   1.083       .  S
C931        C932   1.409       .  A
C932       Br933   1.920       .  S
C937        C938   1.412       .  A
C937        C942   1.399       .  A
C937        H944   1.082       .  S
C938        C939   1.420       .  A
C939        C940   1.406       .  A
C940        C941   1.405       .  A
C940        H945   1.083       .  S
C941        C942   1.409       .  A
C942       Br943   1.922       .  S
C947        C948   1.404       .  A
C947        C952   1.406       .  A
C947        H954   1.083       .  S
C948        C949   1.416       .  A
C949        C950   1.394       .  A
C949       Br956   1.922       .  S
C950        C951   1.398       .  A
C950        H955   1.084       .  S
C951        C952   1.410       .  A
C952       Br953   1.916       .  S
C957        C958   1.412       .  A
C957        C962   1.407       .  A
C957        H964   1.082       .  S
C958        C959   1.419       .  A
C959        C960   1.399       .  A
C959       Br966   1.917       .  S
C960        C961   1.400       .  A
C960        H965   1.084       .  S
C961        C962   1.410       .  A
C962       Br963   1.918       .  S
C967        C968   1.401       .  A
C967        C972   1.403       .  A
C967        H974   1.084       .  S
C968        C969   1.409       .  A
C969        C970   1.395       .  A
C969       Br976   1.916       .  S
C970        C971   1.403       .  A
C970        H975   1.083       .  S
C971        C972   1.416       .  A
C972       Br973   1.920       .  S
C977        C978   1.400       .  A
C977        C982   1.403       .  A
C977        H984   1.083       .  S
C978        C979   1.404       .  A
C979        C980   1.399       .  A
C979       Br986   1.922       .  S
C980        C981   1.416       .  A
C980        H985   1.075       .  S
C981        C982   1.425       .  A
C982       Br983   1.920       .  S
C987        C988   1.405       .  A
C987        C992   1.405       .  A
C987        H994   1.083       .  S
C988        C989   1.408       .  A
C989        C990   1.397       .  A
C989       Br996   1.923       .  S
C990        C991   1.414       .  A
C990        H995   1.082       .  S
C991        C992   1.421       .  A
C992       Br993   1.921       .  S
C997        C998   1.410       .  A
C997       C1002   1.394       .  A
C997       H1004   1.077       .  S
C998        C999   1.427       .  A
C999       C1000   1.401       .  A
C999      Br1006   1.924       .  S
C1000      C1001   1.397       .  A
C1000      H1005   1.084       .  S
C1001      C1002   1.400       .  A
C1002     Br1003   1.920       .  S
C1007      C1008   1.400       .  A
C1007      C1012   1.396       .  A
C1007      H1014   1.084       .  S
C1008      C1009   1.412       .  A
C1009      C1010   1.405       .  A
C1009     Br1016   1.919       .  S
C1010      C1011   1.404       .  A
C1010      H1015   1.083       .  S
C1011      C1012   1.410       .  A
C1012     Br1013   1.910       .  S
C1017      C1018   1.404       .  A
C1017      C1022   1.394       .  A
C1017      H1024   1.083       .  S
C1018      C1019   1.413       .  A
C1019      C1020   1.398       .  A
C1019     Br1026   1.922       .  S
C1020      C1021   1.406       .  A
C1020      H1025   1.081       .  S
C1021      C1022   1.416       .  A
C1022     Br1023   1.926       .  S
C1027      C1028   1.418       .  A
C1027      C1032   1.398       .  A
C1027      H1034   1.077       .  S
C1028      C1029   1.425       .  A
C1029      C1030   1.404       .  A
C1029     Br1036   1.917       .  S
C1030      C1031   1.400       .  A
C1030      H1035   1.084       .  S
C1031      C1032   1.399       .  A
C1032     Br1033   1.919       .  S
C1037      C1038   1.412       .  A
C1037      C1042   1.405       .  A
C1037      H1044   1.083       .  S
C1038      C1039   1.417       .  A
C1039      C1040   1.402       .  A
C1039     Br1046   1.921       .  S
C1040      C1041   1.402       .  A
C1040      H1045   1.078       .  S
C1041      C1042   1.409       .  A
C1042     Br1043   1.919       .  S
C1047      C1048   1.411       .  A
C1047      C1052   1.404       .  A
C1048      C1049   1.425       .  A
C1049      C1050   1.393       .  A
C1049     Br1056   1.928       .  S
C1050      C1051   1.394       .  A
C1050      H1055   1.084       .  S
C1051      C1052   1.407       .  A
C1052     Br1053   1.918   1_565  S
C1057      C1058   1.405       .  A
C1057      C1062   1.404       .  A
C1057      H1064   1.079       .  S
C1058      C1059   1.422   1_565  A
C1059      C1060   1.405   1_545  A
C1060      C1061   1.405       .  A
C1060      H1065   1.083       .  S
C1061      C1062   1.416       .  A
C1062     Br1063   1.921       .  S
C1067      C1068   1.416       .  A
C1067      C1072   1.392       .  A
C1067      H1074   1.081       .  S
C1068      C1069   1.420       .  A
C1069      C1070   1.404       .  A
C1070      C1071   1.404       .  A
C1070      H1075   1.084       .  S
C1071      C1072   1.404       .  A
C1072     Br1073   1.924       .  S
C1077      C1078   1.406       .  A
C1077      C1082   1.398       .  A
C1077      H1084   1.083       .  S
C1078      C1079   1.414       .  A
C1079      C1080   1.402       .  A
C1079     Br1086   1.921       .  S
C1080      C1081   1.404       .  A
C1080      H1085   1.084       .  S
C1081      C1082   1.407       .  A
C1082     Br1083   1.912       .  S
C1087      C1088   1.414       .  A
C1087      C1092   1.394       .  A
C1087      H1094   1.079       .  S
C1088      C1089   1.428       .  A
C1089      C1090   1.408       .  A
C1089     Br1096   1.923       .  S
C1090      C1091   1.400       .  A
C1090      H1095   1.083       .  S
C1091      C1092   1.404       .  A
C1092     Br1093   1.921       .  S
C1097      C1098   1.416       .  A
C1097      C1102   1.401       .  A
C1098      C1099   1.422       .  A
C1099      C1100   1.398       .  A
C1099     Br1106   1.924       .  S
C1100      C1101   1.400       .  A
C1100      H1105   1.084       .  S
C1101      C1102   1.406       .  A
C1107      C1108   1.403       .  A
C1107      C1112   1.396       .  A
C1107      H1114   1.084       .  S
C1108      C1109   1.412       .  A
C1109      C1110   1.399       .  A
C1109     Br1116   1.920   1_565  S
C1110      C1111   1.399       .  A
C1110      H1115   1.084   1_565  S
C1111      C1112   1.406       .  A
C1112     Br1113   1.919       .  S
C1117      C1118   1.402       .  A
C1117      C1122   1.391       .  A
C1117      H1124   1.083       .  S
C1118      C1119   1.405       .  A
C1119      C1120   1.405       .  A
C1119     Br1126   1.916       .  S
C1120      C1121   1.409       .  A
C1120      H1125   1.083       .  S
C1121      C1122   1.408       .  A
C1122     Br1123   1.921       .  S
C1127      C1128   1.414       .  A
C1127      C1132   1.401       .  A
C1127      H1134   1.080       .  S
C1128      C1129   1.424       .  A
C1129      C1130   1.398       .  A
C1129     Br1136   1.921       .  S
C1130      C1131   1.398       .  A
C1130      H1135   1.084       .  S
C1131      C1132   1.405       .  A
C1132     Br1133   1.919       .  S
C1137      C1138   1.404       .  A
C1137      C1142   1.402       .  A
C1137      H1144   1.083       .  S
C1138      C1139   1.407       .  A
C1139      C1140   1.389       .  A
C1139     Br1146   1.923       .  S
C1140      C1141   1.407       .  A
C1140      H1145   1.077       .  S
C1141      C1142   1.416       .  A
C1142     Br1143   1.920       .  S
C1147      C1148   1.403       .  A
C1147      C1152   1.403       .  A
C1147      H1154   1.084       .  S
C1148      C1149   1.406       .  A
C1149      C1150   1.407       .  A
C1149     Br1156   1.916       .  S
C1150      C1151   1.410       .  A
C1150      H1155   1.083       .  S
C1151      C1152   1.414       .  A
C1152     Br1153   1.921       .  S
C1157      C1158   1.409       .  A
C1157      C1162   1.399       .  A
C1157      H1164   1.083       .  S
C1158      C1159   1.420       .  A
C1159      C1160   1.402       .  A
C1159     Br1166   1.921       .  S
C1160      C1161   1.399       .  A
C1160      H1165   1.084       .  S
C1161      C1162   1.405       .  A
C1162     Br1163   1.920       .  S
C1167      C1168   1.411       .  A
C1167      C1172   1.387       .  A
C1167      H1174   1.084       .  S
C1168      C1169   1.424       .  A
C1169      C1170   1.406       .  A
C1169     Br1176   1.920       .  S
C1170      C1171   1.401       .  A
C1170      H1175   1.084       .  S
C1171      C1172   1.402       .  A
C1172     Br1173   1.921       .  S
C1177      C1178   1.409       .  A
C1177      C1182   1.399       .  A
C1177      H1184   1.082       .  S
C1178      C1179   1.420       .  A
C1179      C1180   1.400       .  A
C1179     Br1186   1.916       .  S
C1180      C1181   1.402       .  A
C1180      H1185   1.084       .  S
C1181      C1182   1.410       .  A
C1182     Br1183   1.920       .  S
C1187      C1188   1.406       .  A
C1187      C1192   1.404       .  A
C1187      H1194   1.083       .  S
C1188      C1189   1.404       .  A
C1189      C1190   1.387       .  A
C1189     Br1196   1.922       .  S
C1190      C1191   1.408       .  A
C1190      H1195   1.084       .  S
C1191      C1192   1.407       .  A
C1192     Br1193   1.915       .  S
C1197      C1198   1.390       .  A
C1197      C1202   1.390       .  A
C1197      H1204   1.084       .  S
C1198      C1199   1.408       .  A
C1199      C1200   1.407       .  A
C1199     Br1206   1.915       .  S
C1200      C1201   1.405       .  A
C1200      H1205   1.083       .  S
C1201      C1202   1.423       .  A
C1202     Br1203   1.913       .  S
C1207      C1208   1.405       .  A
C1207      C1212   1.396       .  A
C1207      H1214   1.083       .  S
C1208      C1209   1.414       .  A
C1209      C1210   1.394       .  A
C1209     Br1216   1.914       .  S
C1210      C1211   1.398       .  A
C1210      H1215   1.084       .  S
C1211      C1212   1.404       .  A
C1212     Br1213   1.918       .  S
