geometry optimzed in LAMMPS
_audit_creation_date              2020-11-30 
_audit_creation_method            'lammps2cif' 
_symmetry_space_group_name_H-M    'P1' 
_symmetry_Int_Tables_number       1 
_symmetry_cell_setting            triclinic 
loop_ 
_symmetry_equiv_pos_as_xyz 
  x,y,z 
_cell_length_a                    36.69702714668189 
_cell_length_b                    36.649529757779796 
_cell_length_c                    36.80368168913236 
_cell_angle_alpha                 89.79899934319407 
_cell_angle_beta                  90.2474007340319 
_cell_angle_gamma                 90.12512026546283 
loop_ 
_atom_site_label 
_atom_site_type_symbol 
_atom_site_fract_x 
_atom_site_fract_y 
_atom_site_fract_z 
_atom_site_charge 
C1          C  0.09825830  0.86928013  0.46351690     0.02230
C2          C  0.08244302  0.86084265  0.49754183     0.02230
C3          C  0.10391940  0.86613862  0.52974251     0.02230
C4          C  0.13390681  0.89155590  0.52879661     0.02230
C5          C  0.13884445  0.91144764  0.49547017     0.02230
C6          C  0.12678986  0.89527729  0.46237003     0.02230
C7          C  0.14545531  0.09606502  0.46584630     0.02230
C8          C  0.14720677  0.07301336  0.49729845     0.02230
C9          C  0.14025869  0.09122437  0.53078611     0.02230
C10         C  0.11597995  0.12223264  0.53108490     0.02230
C11         C  0.09594197  0.12859217  0.49838380     0.02230
C12         C  0.11427035  0.12025635  0.46570491     0.02230
C13         C  0.91708013  0.10612705  0.53390232     0.02230
C14         C  0.93633435  0.11223734  0.50116962     0.02230
C15         C  0.91775662  0.10544392  0.46819348     0.02230
C16         C  0.88890101  0.07933125  0.46803743     0.02230
C17         C  0.88003139  0.06141221  0.50143224     0.02230
C18         C  0.88785117  0.08046531  0.53391003     0.02230
C19         C  0.90258832  0.85110148  0.46683947     0.02230
C20         C  0.92270935  0.84621298  0.49999129     0.02230
C21         C  0.90584397  0.85765832  0.53258027     0.02230
C22         C  0.87755212  0.88386848  0.53141186     0.02230
C23         C  0.87011863  0.90148960  0.49830562     0.02230
C24         C  0.87788312  0.88201773  0.46591175     0.02230
C25         C  0.47816241  0.11429204  0.09845899     0.02230
C26         C  0.51093116  0.12285877  0.08048219     0.02230
C27         C  0.54391479  0.11276188  0.09788904     0.02230
C28         C  0.54359393  0.08443774  0.12438469     0.02230
C29         C  0.51047060  0.06587245  0.13083975     0.02230
C30         C  0.47770537  0.08461563  0.12317399     0.02230
C31         C  0.47668189  0.11368504  0.90146947     0.02230
C32         C  0.50954458  0.11911133  0.92148771     0.02230
C33         C  0.54275838  0.11058817  0.90380026     0.02230
C34         C  0.54187434  0.08529670  0.87441291     0.02230
C35         C  0.50869957  0.06645940  0.86739549     0.02230
C36         C  0.47611876  0.08579638  0.87449881     0.02230
C37         C  0.47639712  0.88758831  0.12529424     0.02230
C38         C  0.50903543  0.90634520  0.13359251     0.02230
C39         C  0.54211426  0.88894183  0.12490259     0.02230
C40         C  0.54269344  0.86224490  0.09708019     0.02230
C41         C  0.50965264  0.85197215  0.08018420     0.02230
C42         C  0.47693480  0.85958454  0.09875004     0.02230
C43         C  0.47852927  0.88677860  0.87329991     0.02230
C44         C  0.51118825  0.90598236  0.86486389     0.02230
C45         C  0.54449903  0.88894058  0.87416888     0.02230
C46         C  0.54496902  0.86222977  0.90252168     0.02230
C47         C  0.51181740  0.85482703  0.92120677     0.02230
C48         C  0.47911754  0.86088685  0.90207339     0.02230
C49         C  0.11520135  0.45341474  0.86785871     0.02230
C50         C  0.09679187  0.48628967  0.85819737     0.02230
C51         C  0.11418796  0.51966631  0.86825100     0.02230
C52         C  0.13709231  0.51962030  0.89983241     0.02230
C53         C  0.14234194  0.48643931  0.91906089     0.02230
C54         C  0.13770656  0.45370669  0.89959488     0.02230
C55         C  0.13197776  0.52104741  0.09515007     0.02230
C56         C  0.14250938  0.48886588  0.07780258     0.02230
C57         C  0.13639242  0.45527736  0.09573162     0.02230
C58         C  0.10497783  0.45137377  0.11887809     0.02230
C59         C  0.08787898  0.48506143  0.12992459     0.02230
C60         C  0.10609913  0.51868471  0.12338620     0.02230
C61         C  0.91229913  0.52222940  0.12009666     0.02230
C62         C  0.92913457  0.48937851  0.13013663     0.02230
C63         C  0.90841297  0.45658170  0.12689680     0.02230
C64         C  0.87663524  0.45655632  0.10315655     0.02230
C65         C  0.87315481  0.48741276  0.07965444     0.02230
C66         C  0.88385456  0.52135557  0.09429490     0.02230
C67         C  0.92064640  0.52173439  0.87944184     0.02230
C68         C  0.93715890  0.48819782  0.87008823     0.02230
C69         C  0.91732467  0.45563062  0.87634121     0.02230
C70         C  0.88758618  0.45619181  0.90098198     0.02230
C71         C  0.88006419  0.48848750  0.92075766     0.02230
C72         C  0.89249715  0.52219153  0.90599495     0.02230
C73         C  0.11951558  0.90650995  0.77745481     0.42400
N74         N  0.17467903  0.92613399  0.77893796     0.01290
C75         C  0.24555049  0.08336172  0.85234578    -0.06590
H76         H  0.16327471  0.10443751  0.74622368     0.06780
C77         C  0.24910383  0.03362865  0.66662238    -0.06940
Co78       Co  0.18384699  0.99224056  0.82549454     0.74180
N79         N  0.17612716  0.05561267  0.77575723    -0.26120
Co80       Co  0.23240306  0.05601861  0.77555999     0.74070
C81         C  0.22231947  0.06249967  0.66231246     0.42500
N82         N  0.25077408  0.94892393  0.70287399     0.00910
N83         N  0.23254229  0.05368219  0.71901742     0.01010
N84         N  0.21162526  0.04494756  0.88664342    -0.46960
H85         H  0.09966099  0.95339464  0.81398783     0.06770
N86         N  0.15664974  0.03280583  0.79560586     0.01300
N87         N  0.28923432  0.05547208  0.77644266     0.01040
C88         C  0.34533610  0.06747641  0.78802323     0.42640
N89         N  0.23175580  0.92427900  0.72091592    -0.25570
C90         C  0.21279816  0.94238090  0.88879440    -0.06490
N91         N  0.15376527  0.89966210  0.76652883    -0.46680
N92         N  0.31078811  0.07757607  0.79526006    -0.46900
C93         C  0.23395129  0.90863472  0.89068318     0.42410
N94         N  0.21272897  0.03437834  0.85197586     0.01280
N95         N  0.28847104  0.92400520  0.77850042    -0.25590
N96         N  0.15630734  0.95043558  0.79794564    -0.26090
N97         N  0.30733504  0.94902325  0.76085011     0.00920
H98         H  0.30434568  0.88014592  0.81462419     0.06810
H99         H  0.36472219  0.02015648  0.75182139     0.06850
N100        N  0.23161401  0.05724414  0.83164005    -0.26140
N101        N  0.25260560  0.02924074  0.70238779    -0.25750
N102        N  0.23080901  0.92646015  0.83510727     0.01290
C103        C  0.11840864  0.07223525  0.77534406     0.42690
C104        C  0.21339626  0.90366996  0.69663008    -0.07000
N105        N  0.30748923  0.03043941  0.75854085    -0.25750
H106        H  0.26279660  0.01733148  0.64670192     0.06830
N107        N  0.12173494  0.04243710  0.79704348    -0.46970
H108        H  0.19441696  0.88205487  0.70323562     0.06820
C109        C  0.34795118  0.91701374  0.78876854     0.42520
C110        C  0.12096404  0.94023381  0.79865570    -0.06500
Co111      Co  0.23141123  0.92445734  0.77827022     0.73820
N112        N  0.24554559  0.94702899  0.66719473    -0.46690
C113        C  0.23256797  0.07553365  0.88870392     0.42790
N114        N  0.24379542  0.90052863  0.85644048    -0.46680
Co115      Co  0.28036219  0.98932074  0.73064422     0.73890
C116        C  0.34314229  0.03650656  0.76318202    -0.07000
C117        C  0.15431054  0.08069697  0.76131441    -0.06570
N118        N  0.21240303  0.95140841  0.85328378    -0.26090
N119        N  0.21309135  0.07369729  0.69599501    -0.46860
H120        H  0.26025296  0.10683265  0.84222635     0.06790
C121        C  0.31181234  0.90227904  0.79661318    -0.06980
Cl122      Cl  0.23201408  0.99045974  0.77759611    -0.49980
C123        C  0.22254959  0.91885815  0.66078759     0.42550
H124        H  0.19804092  0.95623387  0.91003225     0.06760
N125        N  0.34291991  0.94629868  0.76682483    -0.46690
C126        C  0.09038614  0.10053262  0.77768820     0.42400
N127        N  0.07243050  0.15609102  0.78050394     0.01290
C128        C  0.91806042  0.23035799  0.85282498    -0.06590
H129        H  0.89379733  0.14440676  0.74820351     0.06780
C130        C  0.96830777  0.22163929  0.66438787    -0.06940
Co131      Co  0.00696709  0.16649069  0.82620311     0.74180
N132        N  0.94265420  0.15805173  0.77727198    -0.26120
Co133      Co  0.94261522  0.21446516  0.77448805     0.74070
C134        C  0.93863766  0.19567899  0.66148104     0.42500
N135        N  0.05001403  0.22887434  0.70195067     0.00910
N136        N  0.94441746  0.21200510  0.71728096     0.01010
N137        N  0.95728973  0.19645080  0.88628892    -0.46960
H138        H  0.04330634  0.08071303  0.81426589     0.06770
N139        N  0.96559027  0.13895560  0.79749757     0.01300
N140        N  0.94402725  0.27163455  0.77272316     0.01040
C141        C  0.93656591  0.32855154  0.78488053     0.42640
N142        N  0.07392206  0.21095288  0.72185658    -0.25570
C143        C  0.05930234  0.19588134  0.88859572    -0.06490
N144        N  0.09805703  0.13490329  0.76732676    -0.46680
N145        N  0.92433902  0.29452770  0.79244683    -0.46900
C146        C  0.09313450  0.21748358  0.88896416     0.42410
N147        N  0.96622618  0.19682679  0.85132468     0.01280
N148        N  0.07278990  0.26967823  0.77540171    -0.25590
N149        N  0.04790346  0.13782113  0.79941124    -0.26090
N150        N  0.04886300  0.28714801  0.75500404     0.00920
H151        H  0.11311850  0.28853326  0.81379612     0.06810
H152        H  0.98460590  0.34534317  0.74901309     0.06850
N153        N  0.94289250  0.21556375  0.83117157    -0.26140
N154        N  0.97015689  0.22977135  0.69971734    -0.25750
N155        N  0.07271360  0.21404618  0.83432053     0.01290
C156        C  0.92597132  0.10018766  0.77848974     0.42690
C157        C  0.09582359  0.19210174  0.70000115    -0.07000
N158        N  0.96938127  0.28851157  0.75379008    -0.25750
H159        H  0.98701833  0.23075290  0.64363976     0.06830
N160        N  0.95590430  0.10398650  0.79989045    -0.46970
H161        H  0.11713080  0.17402762  0.70917989     0.06820
C162        C  0.07721708  0.32952664  0.78251528     0.42520
C163        C  0.05710189  0.10219129  0.79948276    -0.06500
Co164      Co  0.07362876  0.21281895  0.77802712     0.73820
N165        N  0.05436595  0.22329737  0.66672985    -0.46690
C166        C  0.92736702  0.21766452  0.88920488     0.42790
N167        N  0.09951012  0.22727153  0.85435189    -0.46680
Co168      Co  0.00948994  0.25917154  0.72685289     0.73890
C169        C  0.96652145  0.32453912  0.75944714    -0.07000
C170        C  0.91748169  0.13583976  0.76359363    -0.06570
N171        N  0.04862885  0.19535495  0.85341854    -0.26090
N172        N  0.92520364  0.19047994  0.69535006    -0.46860
H173        H  0.89409152  0.24495199  0.84371259     0.06790
C174        C  0.09226643  0.29437675  0.79377574    -0.06980
Cl175      Cl  0.00815258  0.21308874  0.77662853    -0.49980
C176        C  0.08303051  0.20052581  0.66335590     0.42550
H177        H  0.04651847  0.18097718  0.91053704     0.06760
N178        N  0.05035357  0.32297574  0.75865757    -0.46690
C179        C  0.09483115  0.87774693  0.22298089     0.42400
N180        N  0.07746053  0.82202709  0.21899556     0.01290
C181        C  0.92257147  0.74763304  0.14501679    -0.06590
H182        H  0.89900413  0.82956619  0.25203872     0.06780
C183        C  0.97526643  0.74615666  0.33236449    -0.06940
Co184      Co  0.01123736  0.81192081  0.17331963     0.74180
N185        N  0.94801733  0.81745251  0.22293034    -0.26120
Co186      Co  0.94936575  0.76064589  0.22315328     0.74070
C187        C  0.94435519  0.77056885  0.33625646     0.42500
N188        N  0.05791597  0.74522651  0.29499843     0.00910
N189        N  0.95263158  0.75974016  0.27965507     0.01010
N190        N  0.96030614  0.78372794  0.11228106    -0.46960
H191        H  0.04689720  0.89766614  0.18729406     0.06770
N192        N  0.97049591  0.83763211  0.20336982     0.01300
N193        N  0.95199600  0.70378500  0.22251316     0.01040
C194        C  0.94309679  0.64757287  0.20942833     0.42640
N195        N  0.08081014  0.76571173  0.27640974    -0.25570
C196        C  0.06005031  0.78321073  0.10947889    -0.06490
N197        N  0.10311347  0.84329739  0.23236029    -0.46680
N198        N  0.93068713  0.68167702  0.20348618    -0.46900
C199        C  0.09311744  0.76104086  0.10771372     0.42410
N200        N  0.97025399  0.78210362  0.14706328     0.01280
N201        N  0.08190054  0.70833831  0.21927176    -0.25590
N202        N  0.05237841  0.84030802  0.20072927    -0.26090
N203        N  0.05862794  0.68902106  0.23853161     0.00920
H204        H  0.12285281  0.69281459  0.18018627     0.06810
H205        H  0.99322409  0.62928058  0.24220294     0.06850
N206        N  0.94782264  0.76202452  0.16673880    -0.26140
N207        N  0.97853428  0.74146701  0.29649672    -0.25750
N208        N  0.07701833  0.76599008  0.16328429     0.01290
C209        C  0.93067583  0.87529512  0.22331514     0.42690
C210        C  0.09863032  0.78755020  0.29979422    -0.07000
N211        N  0.97837513  0.68626995  0.23961454    -0.25750
H212        H  0.99323147  0.73492233  0.35284204     0.06830
N213        N  0.96050901  0.87248459  0.20201246    -0.46970
H214        H  0.11775896  0.80881909  0.29266944     0.06820
C215        C  0.08912038  0.64883508  0.20951253     0.42520
C216        C  0.06116827  0.87606806  0.20146923    -0.06500
Co217      Co  0.08019938  0.76546002  0.21953997     0.73820
N218        N  0.05872410  0.75219968  0.33028745    -0.46690
C219        C  0.93062446  0.76195088  0.10903898     0.42790
N220        N  0.10186977  0.75179966  0.14199612    -0.46680
Co221      Co  0.01843339  0.71469751  0.26800827     0.73890
C222        C  0.97495678  0.65048989  0.23293533    -0.07000
C223        C  0.92258666  0.83893558  0.23712376    -0.06570
N224        N  0.05198077  0.78447703  0.14512962    -0.26090
N225        N  0.93173105  0.77784119  0.30245610    -0.46860
H226        H  0.89915238  0.73210408  0.15398661     0.06790
C227        C  0.10229438  0.68521699  0.19976687    -0.06980
Cl228      Cl  0.01477812  0.76329914  0.22082006    -0.49980
C229        C  0.08402381  0.77837677  0.33552213     0.42550
H230        H  0.04551758  0.79718018  0.08794058     0.06760
N231        N  0.06167698  0.65347366  0.23319421    -0.46690
C232        C  0.34828775  0.77283837  0.07239183     0.42400
N233        N  0.29182441  0.76137501  0.06293033     0.01290
C234        C  0.20817850  0.68910916  0.91432367    -0.06590
H235        H  0.30386281  0.80922260  0.89518539     0.06780
C236        C  0.21309934  0.87834215  0.95280586    -0.06940
Co237      Co  0.28022560  0.71698962  0.99646363     0.74180
N238        N  0.28813133  0.76788443  0.93403997    -0.26120
Co239      Co  0.23158469  0.76820309  0.93398007     0.74070
C240        C  0.23404658  0.88042064  0.91897692     0.42500
N241        N  0.21498861  0.83863931  0.04418067     0.00910
N242        N  0.23150952  0.82473840  0.93680864     0.01010
N243        N  0.24098333  0.65679519  0.95522859    -0.46960
H244        H  0.36596188  0.73882057  0.02334477     0.06770
N245        N  0.30688193  0.74798700  0.95738440     0.01300
N246        N  0.17544557  0.76903928  0.93536691     0.01040
C247        C  0.12026767  0.76431431  0.91699000     0.42640
N248        N  0.23443985  0.81796038  0.06638103    -0.25570
C249        C  0.24645042  0.65166055  0.03900005    -0.06490
N250        N  0.31428428  0.78004914  0.08416036    -0.46680
N251        N  0.15481714  0.75573282  0.90927605    -0.46900
C252        C  0.22288111  0.64778992  0.07049217     0.42410
N253        N  0.24938234  0.69188312  0.95636352     0.01280
N254        N  0.17873395  0.76176943  0.06425587    -0.25590
N255        N  0.30904236  0.74356525  0.03715664    -0.26090
N256        N  0.15901305  0.78212013  0.04201303     0.00920
H257        H  0.16577488  0.72920440  0.11091745     0.06810
H258        H  0.09920620  0.79894399  0.96489756     0.06850
N259        N  0.23032520  0.71147219  0.93299471    -0.26140
N260        N  0.21308100  0.84263406  0.96180562    -0.25750
N261        N  0.23501924  0.70448544  0.06208330     0.01290
C262        C  0.34701458  0.78039281  0.93020732     0.42690
C263        C  0.24914995  0.83871805  0.09210764    -0.07000
N264        N  0.15679983  0.78669952  0.96029374    -0.25750
H265        H  0.19817479  0.89954397  0.96662741     0.06830
N266        N  0.34230036  0.75480627  0.95615021    -0.46970
H267        H  0.26452265  0.82855365  0.11510382     0.06820
C268        C  0.12074142  0.75901314  0.07943508     0.42520
C269        C  0.34494747  0.74876638  0.04124027    -0.06500
Co270      Co  0.23505563  0.76140093  0.06460426     0.73820
N271        N  0.21425259  0.87336914  0.05480874    -0.46690
C272        C  0.21498288  0.65315077  0.92958983     0.42790
N273        N  0.21643619  0.68170481  0.08309754    -0.46680
Co274      Co  0.18518122  0.81340112  0.00224130     0.73890
C275        C  0.12119831  0.78548193  0.95084247    -0.07000
C276        C  0.31127044  0.78891956  0.91524089    -0.06570
N277        N  0.25241675  0.68760457  0.03586355    -0.26090
N278        N  0.24402251  0.84617640  0.91087911    -0.46860
H279        H  0.18817624  0.69711537  0.89424968     0.06790
C280        C  0.15687700  0.74548667  0.08798012    -0.06980
Cl281      Cl  0.23302584  0.76514659  0.99935592    -0.49980
C282        C  0.23590231  0.87532136  0.08473430     0.42550
H283        H  0.25619473  0.63083767  0.02074437     0.06760
N284        N  0.12393837  0.78214720  0.05085662    -0.46690
C285        C  0.08076064  0.20281544  0.33803219     0.42400
N286        N  0.07094008  0.21367155  0.28195729     0.01290
C287        C  0.92093277  0.28925577  0.20263538    -0.06590
H288        H  0.90532943  0.16340610  0.29354866     0.06780
C289        C  0.96270970  0.09907006  0.20242385    -0.06940
Co290      Co  0.00445720  0.25857539  0.27174925     0.74180
N291        N  0.94255398  0.20682279  0.27874691    -0.26120
Co292      Co  0.94249960  0.20892320  0.22191527     0.74070
C293        C  0.92955302  0.09669306  0.22447330     0.42500
N294        N  0.05306994  0.13831552  0.20385470     0.00910
N295        N  0.94593980  0.15262535  0.22025008     0.01010
N296        N  0.96157671  0.32051211  0.23655296    -0.46960
H297        H  0.03211719  0.23731082  0.35601650     0.06770
N298        N  0.96576145  0.22640388  0.29796994     0.01300
N299        N  0.94442459  0.20969356  0.16549132     0.01040
C300        C  0.92606446  0.21391464  0.11026847     0.42640
N301        N  0.07542291  0.15816108  0.22392934    -0.25570
C302        C  0.04608599  0.32416905  0.23755399    -0.06490
N303        N  0.09240119  0.19507719  0.30425244    -0.46680
N304        N  0.91814141  0.22270856  0.14474261    -0.46900
C305        C  0.07652158  0.32795235  0.21240373     0.42410
N306        N  0.96377599  0.28492479  0.24263842     0.01280
N307        N  0.07465672  0.21526806  0.16913507    -0.25590
N308        N  0.04531618  0.23165662  0.29926582    -0.26090
N309        N  0.05217621  0.19587090  0.14875428     0.00920
H310        H  0.12343034  0.24549480  0.15765777     0.06810
H311        H  0.97426915  0.17946065  0.08959463     0.06850
N312        N  0.94060371  0.26593211  0.22287194    -0.26140
N313        N  0.97096208  0.13497840  0.20161017    -0.25750
N314        N  0.06979957  0.27140830  0.22665470     0.01290
C315        C  0.94040664  0.19111934  0.33716789     0.42690
C316        C  0.10097628  0.13660736  0.23813686    -0.07000
N317        N  0.96958511  0.19216625  0.14683788    -0.25750
H318        H  0.97711765  0.07776493  0.18822169     0.06830
N319        N  0.96549980  0.21772792  0.33297802    -0.46970
H320        H  0.12433014  0.14579471  0.25367128     0.06820
C321        C  0.09183681  0.21761954  0.11158935     0.42520
C322        C  0.04968190  0.22687892  0.33497140    -0.06500
Co323      Co  0.07337871  0.21471277  0.22559967     0.73820
N324        N  0.06325992  0.10351563  0.20226378    -0.46690
C325        C  0.93506379  0.32547715  0.21161130     0.42790
N326        N  0.08969900  0.29405135  0.20707760    -0.46680
Co327      Co  0.01151212  0.16458662  0.17440014     0.73890
C328        C  0.96018789  0.19318563  0.11136426    -0.07000
C329        C  0.92489198  0.18403097  0.30133896    -0.06570
N330        N  0.04361521  0.28826169  0.24422121    -0.26090
N331        N  0.92095582  0.13088101  0.23394135    -0.46860
H332        H  0.90099379  0.28173550  0.18233374     0.06790
C333        C  0.09998602  0.23038970  0.14804353    -0.06980
Cl334      Cl  0.00798368  0.21160745  0.22312812    -0.49980
C335        C  0.09309104  0.10050916  0.22390829     0.42550
H336        H  0.02752655  0.34476901  0.24724741     0.06760
N337        N  0.06210785  0.19567264  0.11397537    -0.46690
C338        C  0.22037436  0.92039390  0.33814255     0.42400
N339        N  0.23644535  0.92726214  0.28247798     0.01290
C340        C  0.31276304  0.07625939  0.19952372    -0.06590
H341        H  0.19958398  0.10311603  0.28932507     0.06780
C342        C  0.12251806  0.03808430  0.20123488    -0.06940
Co343      Co  0.28209805  0.99370116  0.27059535     0.74180
N344        N  0.23390607  0.05810266  0.27642719    -0.26120
Co345      Co  0.23306578  0.05574781  0.21990485     0.74070
C346        C  0.12119384  0.07209125  0.22216826     0.42500
N347        N  0.16038111  0.94602492  0.20494014     0.00910
N348        N  0.17651281  0.05351199  0.21954361     0.01010
N349        N  0.34420902  0.03555401  0.23350568    -0.46960
H350        H  0.25238116  0.97140000  0.35576079     0.06770
N351        N  0.25292146  0.03492218  0.29616988     0.01300
N352        N  0.23216716  0.05291905  0.16365683     0.01040
C353        C  0.23334435  0.07193833  0.10853654     0.42640
N354        N  0.18032657  0.92362365  0.22492614    -0.25570
C355        C  0.34665422  0.95017828  0.23678296    -0.06490
N356        N  0.21622496  0.90684750  0.30436589    -0.46680
N357        N  0.24408597  0.07945380  0.14260492    -0.46900
C358        C  0.34991015  0.91892098  0.21270835     0.42410
N359        N  0.30873613  0.03316922  0.23958234     0.01280
N360        N  0.23615882  0.92303539  0.16958088    -0.25590
N361        N  0.25311658  0.95408274  0.29965669    -0.26090
N362        N  0.21628225  0.94503081  0.14907143     0.00920
H363        H  0.26597541  0.87418861  0.15910561     0.06810
H364        H  0.19724449  0.02406503  0.08916612     0.06850
N365        N  0.28973677  0.05640483  0.21974394    -0.26140
N366        N  0.15804781  0.02853315  0.20127954    -0.25750
N367        N  0.29360683  0.92682718  0.22599942     0.01290
C368        C  0.22864545  0.07091749  0.33535527     0.42690
C369        C  0.15877337  0.89838365  0.23955807    -0.07000
N370        N  0.21358509  0.02788704  0.14564840    -0.25750
H371        H  0.10089847  0.02420761  0.18673041     0.06830
N372        N  0.25045156  0.04143426  0.33151289    -0.46970
H373        H  0.16799065  0.87492137  0.25493749     0.06820
C374        C  0.23658600  0.90410693  0.11263018     0.42520
C375        C  0.24444854  0.95207672  0.33504462    -0.06500
Co376      Co  0.23683986  0.92455638  0.22588127     0.73820
N377        N  0.12554608  0.93598204  0.20365039    -0.46690
C378        C  0.34874789  0.06262380  0.20904088     0.42790
N379        N  0.31590853  0.90614586  0.20672172    -0.46680
Co380      Co  0.18631485  0.98674604  0.17443287     0.73890
C381        C  0.21270828  0.03762660  0.11026274    -0.07000
C382        C  0.21735823  0.08162213  0.29856621    -0.06570
N383        N  0.31082656  0.95307859  0.24344400    -0.26090
N384        N  0.15563094  0.07971472  0.23217084    -0.46860
H385        H  0.30523606  0.09657533  0.17951470     0.06790
C386        C  0.25063733  0.89722805  0.14893388    -0.06980
Cl387      Cl  0.23438701  0.99020026  0.22259949    -0.49980
C388        C  0.12262912  0.90634123  0.22553127     0.42550
H389        H  0.36765734  0.96871451  0.24600968     0.06760
N390        N  0.21487412  0.93398599  0.11461128    -0.46690
C391        C  0.23187715  0.10132349  0.08154271     0.42400
N392        N  0.22873181  0.15749816  0.06519253     0.01290
C393        C  0.15919862  0.23194754  0.90799836    -0.06590
H394        H  0.26620075  0.14847168  0.88845214     0.06780
C395        C  0.34751875  0.23092605  0.96121417    -0.06940
Co396      Co  0.18459394  0.16868932  0.99819873     0.74180
N397        N  0.23518249  0.16077169  0.93574040    -0.26120
Co398      Co  0.23748869  0.21716063  0.93630768     0.74070
C399        C  0.35217991  0.20748643  0.92978393     0.42500
N400        N  0.30839238  0.22972284  0.04593150     0.00910
N401        N  0.29487139  0.21588296  0.93936449     0.01010
N402        N  0.12498580  0.19844395  0.94674251    -0.46960
H403        H  0.19709609  0.08265607  0.03264734     0.06770
N404        N  0.21406793  0.14130895  0.95738542     0.01300
N405        N  0.23924985  0.27395606  0.93886912     0.01040
C406        C  0.23122064  0.33117579  0.92963873     0.42640
N407        N  0.28810095  0.21174245  0.06944620    -0.25570
C408        C  0.12108715  0.19661969  0.04884832    -0.06490
N409        N  0.24145493  0.13555863  0.09068554    -0.46680
N410        N  0.22167483  0.29755697  0.91788733    -0.46900
C411        C  0.11952764  0.21758647  0.08273317     0.42410
N412        N  0.15981931  0.19921917  0.95688290     0.01280
N413        N  0.23480942  0.27200629  0.06817819    -0.25590
N414        N  0.21081490  0.13974383  0.03952105    -0.26090
N415        N  0.25537105  0.28922805  0.04436265     0.00920
H416        H  0.19950771  0.29171976  0.11048065     0.06810
H417        H  0.26908503  0.34586265  0.97746751     0.06850
N418        N  0.18044857  0.21789052  0.93404793    -0.26140
N419        N  0.31165795  0.23359816  0.96559082    -0.25750
N420        N  0.17488440  0.21581004  0.06395149     0.01290
C421        C  0.23406280  0.10330103  0.91768962     0.42690
C422        C  0.30985984  0.19127498  0.09062900    -0.07000
N423        N  0.25831787  0.29016971  0.96455309    -0.25750
H424        H  0.36771183  0.24383009  0.97833959     0.06830
N425        N  0.21165181  0.10659524  0.94679364    -0.46970
H426        H  0.30105841  0.17246730  0.11152076     0.06820
C427        C  0.23196224  0.33276953  0.07548416     0.42520
C428        C  0.21108977  0.10384869  0.04762334    -0.06500
Co429      Co  0.23145202  0.21442567  0.06740750     0.73820
N430        N  0.34351076  0.22225587  0.04956713    -0.46690
C431        C  0.12252169  0.21912888  0.91630669     0.42790
N432        N  0.15389234  0.22817012  0.09013827    -0.46680
Co433      Co  0.28398893  0.26107144  0.00519390     0.73890
C434        C  0.25581314  0.32614794  0.96030625    -0.07000
C435        C  0.24974162  0.13911509  0.91092320    -0.06570
N436        N  0.15656259  0.19707939  0.03920698    -0.26090
N437        N  0.31821889  0.19916886  0.91751886    -0.46860
H438        H  0.16878698  0.24636621  0.88417619     0.06790
C439        C  0.21882370  0.29734025  0.08918080    -0.06980
Cl440      Cl  0.23426018  0.21533447  0.00176538    -0.49980
C441        C  0.34656002  0.19863236  0.07765562     0.42550
H442        H  0.09975285  0.18127120  0.03544011     0.06760
N443        N  0.25390485  0.32518193  0.04729919    -0.46690
C444        C  0.79762231  0.05334506  0.34052168     0.42400
N445        N  0.78692965  0.04657357  0.28314841     0.01290
C446        C  0.71105708  0.89997306  0.19566079    -0.06590
H447        H  0.83055931  0.87534569  0.28652984     0.06780
C448        C  0.90148201  0.93807574  0.20029522    -0.06940
Co449      Co  0.74143095  0.98071236  0.26834314     0.74180
N450        N  0.79098514  0.91677748  0.27292515    -0.26120
Co451      Co  0.79079044  0.92015652  0.21659477     0.74070
C452        C  0.90243902  0.90347581  0.22056789     0.42500
N453        N  0.86379542  0.02947117  0.20559420     0.00910
N454        N  0.84719082  0.92193337  0.21651102     0.01010
N455        N  0.67969009  0.93929761  0.23072248    -0.46960
H456        H  0.76073979  0.00426471  0.35448558     0.06770
N457        N  0.77172441  0.93941044  0.29287223     0.01300
N458        N  0.79108023  0.92530578  0.16061588     0.01040
C459        C  0.78757153  0.90947633  0.10476043     0.42640
N460        N  0.84413972  0.05126807  0.22622960    -0.25570
C461        C  0.67725845  0.02424595  0.23451659    -0.06490
N462        N  0.80511682  0.06685900  0.30703253    -0.46680
N463        N  0.77751886  0.90051694  0.13864734    -0.46900
C464        C  0.67411634  0.05456455  0.20918590     0.42410
N465        N  0.71520939  0.94185032  0.23662829     0.01280
N466        N  0.78874973  0.05442577  0.16994141    -0.25590
N467        N  0.76860563  0.01996961  0.29882142    -0.26090
N468        N  0.80815305  0.03262240  0.14913667     0.00920
H469        H  0.75845601  0.10323645  0.15972476     0.06810
H470        H  0.82454413  0.95726814  0.08676802     0.06850
N471        N  0.73416858  0.91934928  0.21630658    -0.26140
N472        N  0.86590985  0.94749986  0.19944319    -0.25750
N473        N  0.73028126  0.04819700  0.22455858     0.01290
C474        C  0.80189698  0.90750744  0.33137703     0.42690
C475        C  0.86611352  0.07556776  0.24182148    -0.07000
N476        N  0.80999437  0.95062792  0.14341341    -0.25750
H477        H  0.92342690  0.95261446  0.18705734     0.06830
N478        N  0.77768623  0.93496665  0.32807308    -0.46970
H479        H  0.85723507  0.09855153  0.25786316     0.06820
C480        C  0.78698340  0.07353269  0.11296196     0.42520
C481        C  0.77284599  0.02251958  0.33484426    -0.06500
Co482      Co  0.78747678  0.05092752  0.22618290     0.73820
N483        N  0.89870093  0.03913717  0.20468567    -0.46690
C484        C  0.67505735  0.91329317  0.20534775     0.42790
N485        N  0.70803740  0.06802938  0.20393758    -0.46680
Co486      Co  0.83774745  0.99020504  0.17362728     0.73890
C487        C  0.80959584  0.94281408  0.10761203    -0.07000
C488        C  0.81098729  0.89552213  0.29495660    -0.06570
N489        N  0.71297382  0.02177605  0.24176957    -0.26090
N490        N  0.86784669  0.89543014  0.22918355    -0.46860
H491        H  0.71849275  0.88015700  0.17533083     0.06790
C492        C  0.77403058  0.08051279  0.14949640    -0.06980
Cl493      Cl  0.78946203  0.98553627  0.22120085    -0.49980
C494        C  0.90213456  0.06784307  0.22743832     0.42550
H495        H  0.65645477  0.00529449  0.24328858     0.06760
N496        N  0.80863711  0.04364732  0.11460838    -0.46690
C497        C  0.67084191  0.20009399  0.06771756     0.42400
N498        N  0.72693470  0.21391915  0.05993048     0.01290
C499        C  0.80873594  0.28972196  0.91096472    -0.06590
H500        H  0.71674826  0.16936858  0.89020186     0.06780
C501        C  0.80579960  0.09947096  0.95322949    -0.06940
Co502      Co  0.73827523  0.25924608  0.99357013     0.74180
N503        N  0.73174194  0.20939783  0.93056047    -0.26120
Co504      Co  0.78829008  0.20982223  0.93235635     0.74070
C505        C  0.78400821  0.09730869  0.91980328     0.42500
N506        N  0.80515557  0.13829700  0.04314701     0.00910
N507        N  0.78888314  0.15327948  0.93572227     0.01010
N508        N  0.77592616  0.32151878  0.95176601    -0.46960
H509        H  0.65293036  0.23279397  0.01746808     0.06770
N510        N  0.71246868  0.22894595  0.95340080     0.01300
N511        N  0.84442177  0.20988795  0.93530362     0.01040
C512        C  0.89968337  0.21493896  0.91759801     0.42640
N513        N  0.78500372  0.15842694  0.06485559    -0.25570
C514        C  0.76818458  0.32409999  0.03839424    -0.06490
N515        N  0.70473525  0.19466224  0.08086056    -0.46680
N516        N  0.86513544  0.22372776  0.90966346    -0.46900
C517        C  0.79075354  0.32818084  0.07092751     0.42410
N518        N  0.76907353  0.28601487  0.95402707     0.01280
N519        N  0.84025402  0.21498488  0.06444575    -0.25590
N520        N  0.70965836  0.23087856  0.03331681    -0.26090
N521        N  0.86043036  0.19533037  0.04225451     0.00920
H522        H  0.85227321  0.24498407  0.11301795     0.06810
H523        H  0.92059711  0.17946999  0.96537487     0.06850
N524        N  0.78831649  0.26678803  0.93080108    -0.26140
N525        N  0.80714081  0.13535627  0.96110284    -0.25750
N526        N  0.78253619  0.27132188  0.06027507     0.01290
C527        C  0.67268741  0.19821282  0.92355196     0.42690
C528        C  0.77077377  0.13739684  0.09062930    -0.07000
N529        N  0.86303251  0.19186023  0.96029776    -0.25750
H530        H  0.81969423  0.07801076  0.96797874     0.06830
N531        N  0.67702518  0.22280269  0.95040121    -0.46970
H532        H  0.75529233  0.14726225  0.11348509     0.06820
C533        C  0.89796992  0.21626132  0.08193614     0.42520
C534        C  0.67395503  0.22381266  0.03608972    -0.06500
Co535      Co  0.78363033  0.21479225  0.06298608     0.73820
N536        N  0.80707741  0.10373754  0.05433431    -0.46690
C537        C  0.80052374  0.32594147  0.92489513     0.42790
N538        N  0.79874047  0.29425446  0.08286618    -0.46680
Co539      Co  0.83477718  0.16439044  0.00173911     0.73890
C540        C  0.89865581  0.19323583  0.95124720    -0.07000
C541        C  0.70894740  0.18918007  0.91039599    -0.06570
N542        N  0.76481160  0.28810013  0.03395657    -0.26090
N543        N  0.77502835  0.13165353  0.91070404    -0.46860
H544        H  0.82851642  0.28201444  0.89074408     0.06790
C545        C  0.86165645  0.22980720  0.08971839    -0.06980
Cl546      Cl  0.78629722  0.21201774  0.99768387    -0.49980
C547        C  0.78539792  0.10129387  0.08402994     0.42550
H548        H  0.75667189  0.34454559  0.02053869     0.06760
N549        N  0.89525131  0.19449953  0.05238326    -0.46690
C550        C  0.07422751  0.78511961  0.66230099     0.42400
N551        N  0.07018363  0.76673622  0.71752285     0.01290
C552        C  0.92282805  0.68575017  0.79793629    -0.06590
H553        H  0.89753100  0.80519146  0.70926949     0.06780
C554        C  0.96082229  0.87651530  0.80028393    -0.06940
Co555      Co  0.00525621  0.71898214  0.72807153     0.74180
N556        N  0.94065691  0.76753882  0.72329952    -0.26120
Co557      Co  0.94284642  0.76618535  0.77951588     0.74070
C558        C  0.92690336  0.87844559  0.77919787     0.42500
N559        N  0.05243061  0.83913634  0.79680504     0.00910
N560        N  0.94498350  0.82286477  0.78124248     0.01010
N561        N  0.96377778  0.65522935  0.76417125    -0.46960
H562        H  0.02654545  0.74913662  0.64396690     0.06770
N563        N  0.96426708  0.74931745  0.70360816     0.01300
N564        N  0.94575826  0.76511249  0.83554137     0.01040
C565        C  0.92740802  0.76081357  0.89054655     0.42640
N566        N  0.07505362  0.81964446  0.77700275    -0.25570
C567        C  0.05120060  0.65371597  0.75498320    -0.06490
N568        N  0.08849382  0.78932521  0.69592986    -0.46680
N569        N  0.91982140  0.75148198  0.85613277    -0.46900
C570        C  0.08252590  0.64828271  0.77902394     0.42410
N571        N  0.96597237  0.69091728  0.75843393     0.01280
N572        N  0.07519939  0.76198494  0.83103342    -0.25590
N573        N  0.04419157  0.74899400  0.70005010    -0.26090
N574        N  0.05246009  0.78119599  0.85110211     0.00920
H575        H  0.12436824  0.73284064  0.84350078     0.06810
H576        H  0.97471869  0.79699519  0.91126040     0.06850
N577        N  0.94253019  0.70936272  0.77822872    -0.26140
N578        N  0.97005712  0.84089102  0.79978227    -0.25750
N579        N  0.07245761  0.70596012  0.77192011     0.01290
C580        C  0.93189565  0.77831933  0.66482737     0.42690
C581        C  0.10031156  0.84149054  0.76289793    -0.07000
N582        N  0.97049540  0.78349695  0.85412070    -0.25750
H583        H  0.97491666  0.89776494  0.81508285     0.06830
N584        N  0.96041140  0.75555866  0.66840233    -0.46970
H585        H  0.12364915  0.83263420  0.74741416     0.06820
C586        C  0.09212999  0.76088683  0.88889281     0.42520
C587        C  0.04538700  0.75803717  0.66478427    -0.06500
Co588      Co  0.07405385  0.76329057  0.77438030     0.73820
N589        N  0.06222296  0.87412803  0.79827632    -0.46690
C590        C  0.93664448  0.64987883  0.78839592     0.42790
N591        N  0.09435683  0.68212546  0.78832524    -0.46680
Co592      Co  0.01148890  0.81192064  0.82616324     0.73890
C593        C  0.96108133  0.78253388  0.88952709    -0.07000
C594        C  0.91883081  0.78666936  0.70106354    -0.06570
N595        N  0.04653615  0.68978558  0.75311261    -0.26090
N596        N  0.91898976  0.84421468  0.76872353    -0.46860
H597        H  0.90253929  0.69278316  0.81790353     0.06790
C598        C  0.10056344  0.74748908  0.85265265    -0.06980
Cl599      Cl  0.00844583  0.76506717  0.77714585    -0.49980
C600        C  0.09196638  0.87743207  0.77672383     0.42550
H601        H  0.03399733  0.63390641  0.74163513     0.06760
N602        N  0.06218343  0.78205995  0.88589856    -0.46690
C603        C  0.89777002  0.07192964  0.78125433     0.42400
N604        N  0.84247482  0.05301426  0.78327656     0.01290
C605        C  0.76854631  0.89540880  0.85143678    -0.06590
H606        H  0.85415669  0.87521682  0.74707251     0.06780
C607        C  0.77579455  0.95026089  0.66589688    -0.06940
Co608      Co  0.83262098  0.98570337  0.82750003     0.74180
N609        N  0.84101396  0.92321603  0.77736617    -0.26120
Co610      Co  0.78479174  0.92334319  0.77519426     0.74070
C611        C  0.80225452  0.92113182  0.66347070     0.42500
N612        N  0.76942775  0.03237019  0.70408343     0.00910
N613        N  0.78684893  0.92697350  0.71885119     0.01010
N614        N  0.80268838  0.93274591  0.88670538    -0.46960
H615        H  0.91794460  0.02376590  0.81656718     0.06770
N616        N  0.86031632  0.94560844  0.79783177     0.01300
N617        N  0.72812001  0.92449840  0.77384325     0.01040
C618        C  0.67147151  0.91377508  0.78382148     0.42640
N619        N  0.78807492  0.05588995  0.72383642    -0.25570
C620        C  0.80347782  0.03477730  0.89069757    -0.06490
N621        N  0.86342634  0.07943748  0.77097813    -0.46680
N622        N  0.70564989  0.90317578  0.79242268    -0.46900
C623        C  0.78222261  0.06845172  0.89251498     0.42410
N624        N  0.80264565  0.94351960  0.85211956     0.01280
N625        N  0.72875292  0.05470299  0.77789924    -0.25590
N626        N  0.86087435  0.02801676  0.80160898    -0.26090
N627        N  0.71094666  0.03040671  0.75829767     0.00920
H628        H  0.71059426  0.09758582  0.81364769     0.06810
H629        H  0.65450466  0.96076510  0.74533821     0.06850
N630        N  0.78375770  0.92124804  0.83115777    -0.26140
N631        N  0.76854082  0.95248520  0.70134473    -0.25750
N632        N  0.78476973  0.05078265  0.83706405     0.01290
C633        C  0.89874056  0.90670211  0.77743066     0.42690
C634        C  0.80927774  0.07575230  0.70158730    -0.07000
N635        N  0.71085774  0.94961402  0.75487598    -0.25750
H636        H  0.76577304  0.96831279  0.64484536     0.06830
N637        N  0.89526228  0.93598804  0.79960010    -0.46970
H638        H  0.82878690  0.09624515  0.70990765     0.06820
C639        C  0.66866578  0.06161526  0.78370533     0.42520
C640        C  0.89639223  0.03777355  0.80208353    -0.06500
Co641      Co  0.78588455  0.05438728  0.78057795     0.73820
N642        N  0.77717667  0.03464071  0.66902613    -0.46690
C643        C  0.78101980  0.90272585  0.88811395     0.42790
N644        N  0.77189795  0.07655687  0.85829527    -0.46680
Co645      Co  0.73913624  0.99123546  0.72896167     0.73890
C646        C  0.67503220  0.94423041  0.75827322    -0.07000
C647        C  0.86294467  0.89849307  0.76286895    -0.06570
N648        N  0.80355940  0.02589559  0.85522743    -0.26090
N649        N  0.80805332  0.90774015  0.69711071    -0.46860
H650        H  0.75365986  0.87221447  0.84096467     0.06790
C651        C  0.70428853  0.07593348  0.79473061    -0.06980
Cl652      Cl  0.78559029  0.98872705  0.77819329    -0.49980
C653        C  0.80214175  0.06140064  0.66524175     0.42550
H654        H  0.81881445  0.02111878  0.91187775     0.06760
N655        N  0.67511857  0.03310257  0.76153652    -0.46690
C656        C  0.78753305  0.88109442  0.07705645     0.42400
N657        N  0.79077573  0.82486125  0.06166791     0.01290
C658        C  0.86222015  0.74584533  0.90954946    -0.06590
H659        H  0.75102563  0.82767764  0.88682989     0.06780
C660        C  0.67474359  0.74391856  0.96211867    -0.06940
Co661      Co  0.83554599  0.81233384  0.99614928     0.74180
N662        N  0.78393584  0.81644346  0.93365728    -0.26120
Co663      Co  0.78375512  0.75990964  0.93586830     0.74070
C664        C  0.66899186  0.76760577  0.93069880     0.42500
N665        N  0.71420999  0.74870277  0.04551180     0.00910
N666        N  0.72661136  0.75894018  0.93891312     0.01010
N667        N  0.89566268  0.78160738  0.94697376    -0.46960
H668        H  0.82315736  0.89917993  0.02866802     0.06770
N669        N  0.80442509  0.83698658  0.95498628     0.01300
N670        N  0.78468712  0.70307516  0.94006040     0.01040
C671        C  0.80042115  0.64703770  0.93409049     0.42640
N672        N  0.73381189  0.76864182  0.06809623    -0.25570
C673        C  0.90053075  0.78546646  0.04688529    -0.06490
N674        N  0.77778061  0.84700170  0.08645431    -0.46680
N675        N  0.80424698  0.68071787  0.91973905    -0.46900
C676        C  0.90215935  0.76465966  0.08107617     0.42410
N677        N  0.86072103  0.78107024  0.95632197     0.01280
N678        N  0.79020294  0.71180817  0.07010190    -0.25590
N679        N  0.80899866  0.84221777  0.03607316    -0.26090
N680        N  0.77055550  0.69198302  0.04757134     0.00920
H681        H  0.82953787  0.69741235  0.11159325     0.06810
H682        H  0.76945520  0.63000125  0.98555602     0.06850
N683        N  0.84056583  0.76108611  0.93416752    -0.26140
N684        N  0.71081939  0.74102096  0.96558393    -0.25750
N685        N  0.84658378  0.76862380  0.06351330     0.01290
C686        C  0.78123570  0.87413966  0.91614651     0.42690
C687        C  0.71145923  0.78928494  0.08808404    -0.07000
N688        N  0.76876226  0.68626643  0.96752525    -0.25750
H689        H  0.65517196  0.73163824  0.98025642     0.06830
N690        N  0.80436468  0.87185823  0.94483087    -0.46970
H691        H  0.71965950  0.80933869  0.10798350     0.06820
C692        C  0.79977595  0.65271430  0.07936544     0.42520
C693        C  0.80874073  0.87820540  0.04357512    -0.06500
Co694      Co  0.79033993  0.76846511  0.06651546     0.73820
N695        N  0.67882723  0.75530782  0.04849315    -0.46690
C696        C  0.89861247  0.75932872  0.91794691     0.42790
N697        N  0.86774751  0.75563773  0.08939416    -0.46680
Co698      Co  0.74036754  0.71621497  0.00661106     0.73890
C699        C  0.77722148  0.65064541  0.96601622    -0.07000
C700        C  0.76769279  0.83752257  0.90902624    -0.06570
N701        N  0.86476777  0.78618662  0.03797266    -0.26090
N702        N  0.70256583  0.77575434  0.91761388    -0.46860
H703        H  0.85311166  0.72987301  0.88656161     0.06790
C704        C  0.80969360  0.68930084  0.09137586    -0.06980
Cl705      Cl  0.78752549  0.76423203  0.00125548    -0.49980
C706        C  0.67511117  0.78019836  0.07528823     0.42550
H707        H  0.92218620  0.79909522  0.03229406     0.06760
N708        N  0.77581202  0.65657113  0.05187302    -0.46690
C709        C  0.92822477  0.55434180  0.85626530    -0.00210
C710        C  0.91827439  0.55259906  0.81935377    -0.12090
C711        C  0.92109298  0.58326809  0.79667138     0.02020
C712        C  0.93305821  0.61676044  0.81111524    -0.00300
C713        C  0.94393305  0.61835597  0.84768175    -0.12030
C714        C  0.94253725  0.58731464  0.87001001     0.01910
H715        H  0.90789237  0.52719888  0.80830466     0.14890
H716        H  0.95473181  0.64369438  0.85848440     0.14890
C717        C  0.95827111  0.58964707  0.90584997     0.36540
C718        C  0.91254963  0.57953975  0.75854890     0.36450
N719        N  0.97195424  0.59239165  0.93408920    -0.43800
N720        N  0.90621064  0.57637117  0.72789273    -0.43800
C721        C  0.87151147  0.55632904  0.91280165    -0.00210
C722        C  0.84558951  0.56721162  0.88671565    -0.12090
C723        C  0.82266805  0.59712365  0.89286083     0.02020
C724        C  0.82508955  0.61637489  0.92583746    -0.00300
C725        C  0.85171459  0.60635703  0.95143193    -0.12030
C726        C  0.87523161  0.57697947  0.94494694     0.01910
H727        H  0.84264910  0.55164979  0.86185614     0.14890
H728        H  0.85402142  0.62145981  0.97660564     0.14890
C729        C  0.90190008  0.56776743  0.97225450     0.36540
C730        C  0.79565872  0.60643681  0.86578496     0.36450
N731        N  0.92329433  0.56044857  0.99422075    -0.43800
N732        N  0.77391325  0.61381516  0.84412849    -0.43800
C733        C  0.93097992  0.36051990  0.80864734    -0.00210
C734        C  0.95581497  0.36722024  0.83700598    -0.12090
C735        C  0.95212792  0.39791716  0.85943742     0.02020
C736        C  0.92367498  0.42301551  0.85303582    -0.00300
C737        C  0.89889843  0.41618724  0.82461148    -0.12030
C738        C  0.90221504  0.38517230  0.80264452     0.01910
H739        H  0.97791915  0.34818087  0.84185274     0.14890
H740        H  0.87665233  0.43506966  0.81981580     0.14890
C741        C  0.87595229  0.37925033  0.77396645     0.36540
C742        C  0.97670584  0.40200469  0.88978848     0.36450
N743        N  0.85487794  0.37444227  0.75098982    -0.43800
N744        N  0.99620465  0.40474468  0.91439609    -0.43800
C745        C  0.86489251  0.42290429  0.90769644    -0.00210
C746        C  0.88133649  0.39091614  0.92084482    -0.12090
C747        C  0.86082942  0.35918479  0.92676516     0.02020
C748        C  0.82292375  0.35917668  0.91988799    -0.00300
C749        C  0.80622460  0.39135274  0.90773104    -0.12030
C750        C  0.82687864  0.42297431  0.90126942     0.01910
H751        H  0.91024729  0.39082242  0.92685178     0.14890
H752        H  0.77713113  0.39150773  0.90241499     0.14890
C753        C  0.80870952  0.45474512  0.88668187     0.36540
C754        C  0.87916056  0.32740914  0.94114914     0.36450
N755        N  0.79421616  0.48018229  0.87484223    -0.43800
N756        N  0.89391461  0.30204217  0.95281419    -0.43800
C757        C  0.93414006  0.61633803  0.18614764    -0.00210
C758        C  0.95394781  0.61124981  0.15410547    -0.12090
C759        C  0.94662444  0.58149923  0.13144645     0.02020
C760        C  0.92020641  0.55549754  0.14169415    -0.00300
C761        C  0.89984060  0.56120145  0.17336004    -0.12030
C762        C  0.90624038  0.59166870  0.19530658     0.01910
H763        H  0.97468214  0.63095627  0.14647536     0.14890
H764        H  0.87856609  0.54198508  0.18064695     0.14890
C765        C  0.88364711  0.59739148  0.22676618     0.36540
C766        C  0.96447238  0.57992775  0.09678073     0.36450
N767        N  0.86533849  0.60221189  0.25180862    -0.43800
N768        N  0.97766412  0.57978613  0.06831357    -0.43800
C769        C  0.86116445  0.55420249  0.08860882    -0.00210
C770        C  0.87567844  0.58414272  0.06987529    -0.12090
C771        C  0.85663541  0.61703513  0.06775404     0.02020
C772        C  0.82186838  0.61974307  0.08363195    -0.00300
C773        C  0.80705818  0.58978862  0.10204443    -0.12030
C774        C  0.82684520  0.55740331  0.10550037     0.01910
H775        H  0.90224252  0.58205602  0.05761969     0.14890
H776        H  0.78041446  0.59203757  0.11447990     0.14890
C777        C  0.81239896  0.52868797  0.12824740     0.36540
C778        C  0.87332192  0.64759779  0.04929261     0.36450
N779        N  0.80092867  0.50577746  0.14668010    -0.43800
N780        N  0.88677645  0.67216252  0.03470661    -0.43800
C781        C  0.93131473  0.35931106  0.18982035    -0.00210
C782        C  0.92506321  0.39254312  0.20750264    -0.12090
C783        C  0.91902949  0.42478612  0.18757938     0.02020
C784        C  0.92013706  0.42429051  0.14909898    -0.00300
C785        C  0.92826935  0.39120960  0.13189055    -0.12030
C786        C  0.93398762  0.35907374  0.15162943     0.01910
H787        H  0.92327142  0.39299633  0.23690573     0.14890
H788        H  0.92796067  0.38970336  0.10285602     0.14890
C789        C  0.94305568  0.32645134  0.13177581     0.36540
C790        C  0.90847975  0.45708760  0.20718803     0.36450
N791        N  0.95054010  0.30053626  0.11559664    -0.43800
N792        N  0.90005509  0.48283142  0.22317587    -0.43800
C793        C  0.80751909  0.36225084  0.08463010    -0.00210
C794        C  0.80034627  0.39498163  0.06638762    -0.12090
C795        C  0.81787187  0.42724284  0.07639542     0.02020
C796        C  0.84775510  0.42627322  0.10117594    -0.00300
C797        C  0.84762864  0.39598890  0.12499006    -0.12030
C798        C  0.82919215  0.36366652  0.11629297     0.01910
H799        H  0.77938420  0.39614119  0.04562729     0.14890
H800        H  0.86042067  0.39720566  0.15120957     0.14890
C801        C  0.83215931  0.33316304  0.14105637     0.36540
C802        C  0.79761178  0.46002266  0.06862717     0.36450
N803        N  0.83438911  0.30886932  0.16110086    -0.43800
N804        N  0.77902571  0.48486065  0.06281603    -0.43800
C805        C  0.87143712  0.48462538  0.96067780    -0.00210
C806        C  0.89445134  0.46185629  0.98095080    -0.12090
C807        C  0.89253596  0.45941130  0.01876188     0.02020
C808        C  0.86989432  0.48348409  0.03861715    -0.00300
C809        C  0.84586914  0.50571547  0.01810745    -0.12030
C810        C  0.84436571  0.50396033  0.97978216     0.01910
H811        H  0.91525546  0.44627483  0.96706288     0.14890
H812        H  0.82728823  0.52379053  0.03187142     0.14890
C813        C  0.81375546  0.52034978  0.96132697     0.36540
C814        C  0.91749688  0.43393847  0.03505820     0.36450
N815        N  0.78863384  0.53312382  0.94710056    -0.43800
N816        N  0.93934720  0.41324265  0.04437052    -0.43800
C817        C  0.09321596  0.61530260  0.18802155    -0.00210
C818        C  0.07952715  0.61466016  0.15243665    -0.12090
C819        C  0.08155255  0.58292108  0.13149645     0.02020
C820        C  0.09798581  0.55126660  0.14599465    -0.00300
C821        C  0.11101428  0.55179276  0.18191178    -0.12030
C822        C  0.10855528  0.58343477  0.20302812     0.01910
H823        H  0.06690655  0.63894144  0.14112423     0.14890
H824        H  0.12415195  0.52772514  0.19306504     0.14890
C825        C  0.12313376  0.58305034  0.23950690     0.36540
C826        C  0.06657308  0.58360744  0.09531467     0.36450
N827        N  0.13494816  0.58280890  0.26870977    -0.43800
N828        N  0.05454373  0.58470102  0.06625696    -0.43800
C829        C  0.15332581  0.55514214  0.08847188    -0.00210
C830        C  0.17852013  0.56587304  0.11530724    -0.12090
C831        C  0.20088379  0.59648219  0.11036935     0.02020
C832        C  0.19891058  0.61638640  0.07770924    -0.00300
C833        C  0.17378110  0.60602051  0.05090500    -0.12030
C834        C  0.15067783  0.57604613  0.05609741     0.01910
H835        H  0.18101238  0.54993699  0.14008069     0.14890
H836        H  0.17203361  0.62165697  0.02585432     0.14890
C837        C  0.12463143  0.56807998  0.02772472     0.36540
C838        C  0.22645662  0.60626086  0.13861092     0.36450
N839        N  0.10404847  0.56242284  0.00448656    -0.43800
N840        N  0.24697898  0.61406538  0.16125864    -0.43800
C841        C  0.08270994  0.35814537  0.18631233    -0.00210
C842        C  0.05479547  0.38345890  0.17927590    -0.12090
C843        C  0.05808520  0.40862747  0.15058787     0.02020
C844        C  0.09211947  0.41407604  0.13379299    -0.00300
C845        C  0.11445131  0.38291512  0.13430848    -0.12030
C846        C  0.11248490  0.35741593  0.16235932     0.01910
H847        H  0.02852307  0.38015010  0.19224437     0.14890
H848        H  0.13208453  0.37628836  0.11229047     0.14890
C849        C  0.14158664  0.33111921  0.16573186     0.36540
C850        C  0.02649778  0.41103486  0.12752803     0.36450
N851        N  0.16500639  0.31028917  0.16911433    -0.43800
N852        N  0.00203942  0.41098922  0.10765442    -0.43800
C853        C  0.21452073  0.36884295  0.08088992    -0.00210
C854        C  0.20874359  0.38293164  0.11586303    -0.12090
C855        C  0.18719083  0.41442941  0.12053256     0.02020
C856        C  0.16542362  0.42716733  0.09108065    -0.00300
C857        C  0.17220960  0.41298352  0.05652134    -0.12030
C858        C  0.20016460  0.38827679  0.05114481     0.01910
H859        H  0.22130154  0.36980282  0.13917651     0.14890
H860        H  0.15741252  0.42223942  0.03292391     0.14890
C861        C  0.21970139  0.39246935  0.01772244     0.36540
C862        C  0.18442412  0.43048010  0.15616746     0.36450
N863        N  0.23550236  0.40081937  0.99189869    -0.43800
N864        N  0.18206497  0.44344036  0.18468325    -0.43800
C865        C  0.04748212  0.48803094  0.13318201    -0.00210
C866        C  0.02828818  0.49177591  0.10053506    -0.12090
C867        C  0.99034622  0.49230823  0.09975152     0.02020
C868        C  0.97000660  0.48910315  0.13217345    -0.00300
C869        C  0.98921090  0.48820960  0.16543854    -0.12030
C870        C  0.02780746  0.48803666  0.16615741     0.01910
H871        H  0.04321214  0.49354652  0.07519397     0.14890
H872        H  0.97431603  0.48787235  0.19072315     0.14890
C873        C  0.04652802  0.48722193  0.20063819     0.36540
C874        C  0.97334233  0.49686153  0.06480902     0.36450
N875        N  0.06149720  0.48678575  0.22837156    -0.43800
N876        N  0.96094855  0.50195025  0.03636890    -0.43800
C877        C  0.10740750  0.55373724  0.84601990    -0.00210
C878        C  0.07149305  0.56491067  0.83944339    -0.12090
C879        C  0.06343016  0.59151783  0.81364232     0.02020
C880        C  0.09110062  0.61464445  0.80030355    -0.00300
C881        C  0.12736334  0.60564454  0.80857289    -0.12030
C882        C  0.13564183  0.57378105  0.82859680     0.01910
H883        H  0.04889219  0.55181126  0.85265012     0.14890
H884        H  0.14921129  0.62193240  0.79711295     0.14890
C885        C  0.17271006  0.56093689  0.82782104     0.36540
C886        C  0.02800178  0.58930252  0.79716795     0.36450
N887        N  0.20254516  0.55100975  0.82590223    -0.43800
N888        N  0.00073335  0.58457311  0.78213942    -0.43800
C889        C  0.19386870  0.61949091  0.92415075    -0.00210
C890        C  0.21337562  0.58739759  0.91908308    -0.12090
C891        C  0.19552965  0.55460578  0.91205013     0.02020
C892        C  0.15689215  0.55313314  0.91152131    -0.00300
C893        C  0.13725638  0.58514588  0.91869229    -0.12030
C894        C  0.15539396  0.61834297  0.92458286     0.01910
H895        H  0.24295367  0.58827407  0.91911596     0.14890
H896        H  0.10770870  0.58434315  0.91872179     0.14890
C897        C  0.13394734  0.65040297  0.93193948     0.36540
C898        C  0.21840541  0.52388117  0.90358796     0.36450
N899        N  0.11653614  0.67594736  0.93794671    -0.43800
N900        N  0.23864672  0.50041594  0.89815599    -0.43800
C901        C  0.11013440  0.42033992  0.84423713    -0.00210
C902        C  0.10595700  0.42492226  0.80641162    -0.12090
C903        C  0.09279009  0.39611159  0.78499115     0.02020
C904        C  0.08128371  0.36379326  0.80229716    -0.00300
C905        C  0.08185358  0.36186618  0.84026752    -0.12030
C906        C  0.10628439  0.38452361  0.85815378     0.01910
H907        H  0.11346073  0.45059027  0.79383326     0.14890
H908        H  0.07450218  0.33619642  0.85320860     0.14890
C909        C  0.13910741  0.36313428  0.86146496     0.36540
C910        C  0.09151170  0.39998752  0.74599198     0.36450
N911        N  0.16392251  0.34372938  0.86044494    -0.43800
N912        N  0.09023807  0.40303294  0.71470677    -0.43800
C913        C  0.16256266  0.42327303  0.90892045    -0.00210
C914        C  0.15295468  0.39796493  0.93596696    -0.12090
C915        C  0.17490384  0.36747837  0.94281305     0.02020
C916        C  0.20825083  0.36349377  0.92420426    -0.00300
C917        C  0.21885134  0.38976696  0.89866412    -0.12030
C918        C  0.19560144  0.41873110  0.88984629     0.01910
H919        H  0.12730703  0.40059792  0.95003038     0.14890
H920        H  0.24399247  0.38613755  0.88373115     0.14890
C921        C  0.20398764  0.44070278  0.85832819     0.36540
C922        C  0.16206069  0.33992394  0.96787545     0.36450
N923        N  0.21039017  0.45799136  0.83275846    -0.43800
N924        N  0.15167570  0.31770591  0.98773645    -0.43800
C925        C  0.14441077  0.48552936  0.96007647    -0.00210
C926        C  0.17607124  0.49589293  0.97944978    -0.12090
C927        C  0.17660482  0.49719368  0.01773709     0.02020
C928        C  0.14482308  0.48879962  0.03739955    -0.00300
C929        C  0.11383723  0.47712584  0.01837483    -0.12030
C930        C  0.11376922  0.47417832  0.98058743     0.01910
H931        H  0.20088351  0.50189467  0.96529783     0.14890
H932        H  0.08985674  0.46878911  0.03345079     0.14890
C933        C  0.08268928  0.45632692  0.96451754     0.36540
C934        C  0.21004197  0.50636648  0.03632126     0.36450
N935        N  0.05797288  0.44031863  0.95317991    -0.43800
N936        N  0.23683000  0.51365524  0.05134755    -0.43800
C937        C  0.05552128  0.48519996  0.85807963    -0.00210
C938        C  0.03867528  0.49227824  0.89142508    -0.12090
C939        C  0.00083016  0.49307187  0.89517657     0.02020
C940        C  0.97778997  0.48726841  0.86496607    -0.00300
C941        C  0.99405686  0.48190882  0.83085898    -0.12030
C942        C  0.03254461  0.48179292  0.82700982     0.01910
H943        H  0.05547163  0.49918166  0.91459387     0.14890
H944        H  0.97672860  0.47914260  0.80709452     0.14890
C945        C  0.04698222  0.48279778  0.79073276     0.36540
C946        C  0.98630599  0.49997442  0.93078440     0.36450
N947        N  0.05768438  0.48436860  0.76123418    -0.43800
N948        N  0.97481826  0.50561308  0.95938308    -0.43800
C949        C  0.57736128  0.89778565  0.85181974    -0.00210
C950        C  0.57468137  0.89364906  0.81390587    -0.12090
C951        C  0.60525134  0.89736255  0.79156429     0.02020
C952        C  0.63931107  0.90634361  0.80688866    -0.00300
C953        C  0.64192417  0.91173220  0.84463482    -0.12030
C954        C  0.61121992  0.90805390  0.86704863     0.01910
H955        H  0.54874301  0.88612886  0.80180360     0.14890
H956        H  0.66776891  0.91996279  0.85647403     0.14890
C957        C  0.61469193  0.91665014  0.90514078     0.36540
C958        C  0.60098034  0.89205717  0.75293231     0.36450
N959        N  0.61741091  0.92372760  0.93565125    -0.43800
N960        N  0.59752591  0.88791963  0.72195207    -0.43800
C961        C  0.63620565  0.79025271  0.92339306    -0.00210
C962        C  0.62438294  0.79605912  0.88761289    -0.12090
C963        C  0.59312219  0.81710419  0.88060262     0.02020
C964        C  0.57756843  0.83844367  0.90871677    -0.00300
C965        C  0.59140942  0.83422573  0.94390056    -0.12030
C966        C  0.61645962  0.80676656  0.95171207     0.01910
H967        H  0.63761560  0.78169137  0.86561500     0.14890
H968        H  0.58026861  0.84990412  0.96600833     0.14890
C969        C  0.61381434  0.79004455  0.98688930     0.36540
C970        C  0.57572868  0.81327543  0.84558439     0.36450
N971        N  0.60883906  0.77429960  0.01366649    -0.43800
N972        N  0.56161442  0.80939440  0.81767763    -0.43800
C973        C  0.44444880  0.89311812  0.85201702    -0.00210
C974        C  0.42869111  0.92757923  0.85265060    -0.12090
C975        C  0.40059166  0.93629895  0.82875499     0.02020
C976        C  0.38183014  0.90894063  0.80954889    -0.00300
C977        C  0.39529384  0.87318880  0.81142519    -0.12030
C978        C  0.42777762  0.86563271  0.83052006     0.01910
H979        H  0.44043552  0.94881539  0.86945532     0.14890
H980        H  0.38180681  0.85176404  0.79617054     0.14890
C981        C  0.44423819  0.83023259  0.82616506     0.36540
C982        C  0.39789344  0.97366507  0.81897665     0.36450
N983        N  0.45743726  0.80189968  0.82213487    -0.43800
N984        N  0.40029813  0.00352254  0.80978131    -0.43800
C985        C  0.44594277  0.84017471  0.91297282    -0.00210
C986        C  0.41384220  0.85898770  0.92137943    -0.12090
C987        C  0.38127027  0.84009693  0.92736869     0.02020
C988        C  0.38077818  0.80159212  0.92572375    -0.00300
C989        C  0.41328490  0.78269976  0.91988135    -0.12030
C990        C  0.44570889  0.80156554  0.91320331     0.01910
H991        H  0.41409493  0.88854341  0.92252322     0.14890
H992        H  0.41304732  0.75310781  0.91916477     0.14890
C993        C  0.47779234  0.78063216  0.90444659     0.36540
C994        C  0.34912460  0.86088422  0.93611576     0.36450
N995        N  0.50349149  0.76390446  0.89733988    -0.43800
N996        N  0.32349643  0.87771091  0.94322794    -0.43800
C997        C  0.57538925  0.89799464  0.14621553    -0.00210
C998        C  0.60582457  0.91295793  0.12870233    -0.12090
C999        C  0.63886484  0.91742438  0.14725799     0.02020
C1000       C  0.64112347  0.90856773  0.18454028    -0.00300
C1001       C  0.61013658  0.89586249  0.20265746    -0.12030
C1002       C  0.57754062  0.88993836  0.18372580     0.01910
H1003       H  0.60388479  0.92081075  0.10041830     0.14890
H1004       H  0.61175732  0.88946157  0.23142063     0.14890
C1005       C  0.54718532  0.87421948  0.20312422     0.36540
C1006       C  0.66982574  0.93155159  0.12756786     0.36450
N1007       N  0.52299646  0.86156062  0.21884388    -0.43800
N1008       N  0.69466053  0.94268544  0.11170070    -0.43800
C1009       C  0.57644924  0.84123971  0.08983066    -0.00210
C1010       C  0.58375529  0.81069542  0.11176559    -0.12090
C1011       C  0.61580202  0.79053966  0.10743587     0.02020
C1012       C  0.64182962  0.80173647  0.08174420    -0.00300
C1013       C  0.63523253  0.83312389  0.06066297    -0.12030
C1014       C  0.60220529  0.85213799  0.06361909     0.01910
H1015       H  0.56427363  0.80258458  0.13232761     0.14890
H1016       H  0.65514426  0.84166567  0.04065023     0.14890
C1017       C  0.59514394  0.88242721  0.03944692     0.36540
C1018       C  0.62145456  0.75846740  0.12959083     0.36450
N1019       N  0.58933018  0.90676645  0.02017981    -0.43800
N1020       N  0.62597651  0.73269620  0.14728268    -0.43800
C1021       C  0.44295664  0.89519043  0.14652539    -0.00210
C1022       C  0.43600234  0.87433859  0.17777348    -0.12090
C1023       C  0.40563381  0.88159991  0.19952316     0.02020
C1024       C  0.38163543  0.91001431  0.18992395    -0.00300
C1025       C  0.38807794  0.93032387  0.15810899    -0.12030
C1026       C  0.41840905  0.92280045  0.13630423     0.01910
H1027       H  0.45458189  0.85262345  0.18534911     0.14890
H1028       H  0.36930763  0.95177613  0.15020918     0.14890
C1029       C  0.42331129  0.94173858  0.10236671     0.36540
C1030       C  0.39995437  0.86004357  0.23190427     0.36450
N1031       N  0.42822388  0.95433808  0.07397613    -0.43800
N1032       N  0.39541778  0.84281326  0.25790789    -0.43800
C1033       C  0.44414690  0.83699330  0.09116030    -0.00210
C1034       C  0.41317432  0.85302190  0.07550411    -0.12090
C1035       C  0.38100780  0.83301553  0.07092430     0.02020
C1036       C  0.38028006  0.79566753  0.08016831    -0.00300
C1037       C  0.41157356  0.77916014  0.09446162    -0.12030
C1038       C  0.44318217  0.79964843  0.10072277     0.01910
H1039       H  0.41411592  0.88109193  0.06662833     0.14890
H1040       H  0.41109824  0.75033908  0.10126896     0.14890
C1041       C  0.47386803  0.78193062  0.11788604     0.36540
C1042       C  0.34939547  0.85122012  0.05604740     0.36450
N1043       N  0.49825155  0.76747819  0.13177077    -0.43800
N1044       N  0.32403454  0.86594335  0.04436787    -0.43800
C1045       C  0.50816214  0.84909182  0.03959794    -0.00210
C1046       C  0.49729334  0.88045693  0.02064023    -0.12090
C1047       C  0.49732675  0.88191387  0.98270043     0.02020
C1048       C  0.50954078  0.85173727  0.96210224    -0.00300
C1049       C  0.51810002  0.81923215  0.98100155    -0.12030
C1050       C  0.51770737  0.81782575  0.01946665     0.01910
H1051       H  0.48891587  0.90435877  0.03579583     0.14890
H1052       H  0.52602312  0.79528573  0.96582282     0.14890
C1053       C  0.52659000  0.78407602  0.03757562     0.36540
C1054       C  0.48334905  0.91471882  0.96594473     0.36450
N1055       N  0.53368272  0.75685255  0.05194136    -0.43800
N1056       N  0.47091921  0.94093858  0.95348623    -0.43800
C1057       C  0.57360068  0.08039346  0.84921957    -0.00210
C1058       C  0.58580099  0.04520427  0.84138369    -0.12090
C1059       C  0.61218986  0.03914063  0.81533224     0.02020
C1060       C  0.63376531  0.06817875  0.80266809    -0.00300
C1061       C  0.62261950  0.10386026  0.81063265    -0.12030
C1062       C  0.59076522  0.10995744  0.83092140     0.01910
H1063       H  0.57412914  0.02158645  0.85407950     0.14890
H1064       H  0.63742043  0.12677083  0.79916162     0.14890
C1065       C  0.57485738  0.14590215  0.82985634     0.36540
C1066       C  0.61027044  0.00451657  0.79762608     0.36450
N1067       N  0.56195647  0.17464926  0.82815747    -0.43800
N1068       N  0.60361095  0.97749398  0.78307984    -0.43800
C1069       C  0.63940863  0.17612413  0.91892296    -0.00210
C1070       C  0.64222339  0.13799356  0.91925169    -0.12090
C1071       C  0.61115688  0.11584549  0.91762666     0.02020
C1072       C  0.57640780  0.13191055  0.91280987    -0.00300
C1073       C  0.57398130  0.17024238  0.91194494    -0.12030
C1074       C  0.60483757  0.19229828  0.91598671     0.01910
H1075       H  0.66880769  0.12537779  0.92204413     0.14890
H1076       H  0.54787825  0.18308776  0.90668022     0.14890
C1077       C  0.60051052  0.23143661  0.91523990     0.36540
C1078       C  0.61635058  0.07698456  0.92093990     0.36450
N1079       N  0.59704469  0.26281005  0.91468900    -0.43800
N1080       N  0.62196578  0.04601420  0.92341012    -0.43800
C1081       C  0.37729957  0.07621772  0.81106977    -0.00210
C1082       C  0.41064971  0.08315892  0.79389633    -0.12090
C1083       C  0.44325953  0.08441381  0.81380318     0.02020
C1084       C  0.44286032  0.07922374  0.85195347    -0.00300
C1085       C  0.40949394  0.07211518  0.86909840    -0.12030
C1086       C  0.37690775  0.07050171  0.84913412     0.01910
H1087       H  0.41132463  0.08649924  0.76460840     0.14890
H1088       H  0.40897007  0.06770376  0.89824639     0.14890
C1089       C  0.34436508  0.05905649  0.86788594     0.36540
C1090       C  0.47657542  0.09236682  0.79449326     0.36450
N1091       N  0.31874127  0.04918021  0.88328818    -0.43800
N1092       N  0.50327349  0.09870674  0.77905842    -0.43800
C1093       C  0.44441201  0.13820237  0.90762570    -0.00210
C1094       C  0.43054404  0.14232424  0.94270587    -0.12090
C1095       C  0.40500426  0.16888084  0.95048870     0.02020
C1096       C  0.38496629  0.18533346  0.92217822    -0.00300
C1097       C  0.39698824  0.18037757  0.88645221    -0.12030
C1098       C  0.42863741  0.15987682  0.87957732     0.01910
H1099       H  0.44083616  0.12698820  0.96522277     0.14890
H1100       H  0.38363962  0.19501958  0.86448963     0.14890
C1101       C  0.44631637  0.16509598  0.84505354     0.36540
C1102       C  0.40655873  0.18369131  0.98653030     0.36450
N1103       N  0.46047017  0.17073283  0.81756249    -0.43800
N1104       N  0.41123443  0.19739689  0.01437535    -0.43800
C1105       C  0.50819465  0.02516189  0.86547201    -0.00210
C1106       C  0.49835747  0.00628625  0.83343247    -0.12090
C1107       C  0.50067123  0.96768853  0.83131632     0.02020
C1108       C  0.51153843  0.94705895  0.86204808    -0.00300
C1109       C  0.52284810  0.96601235  0.89305816    -0.12030
C1110       C  0.52142059  0.00402874  0.89515520     0.01910
H1111       H  0.48996638  0.02150042  0.80965092     0.14890
H1112       H  0.53323016  0.95074285  0.91617724     0.14890
C1113       C  0.53670787  0.02013637  0.92750696     0.36540
C1114       C  0.49234037  0.94989699  0.79740831     0.36450
N1115       N  0.54958578  0.03160891  0.95385971    -0.43800
N1116       N  0.48568081  0.93554000  0.77021974    -0.43800
C1117       C  0.64163613  0.06254414  0.18661302    -0.00210
C1118       C  0.60859321  0.06891138  0.20426542    -0.12090
C1119       C  0.57651746  0.07525212  0.18455557     0.02020
C1120       C  0.57686429  0.07463249  0.14607477    -0.00300
C1121       C  0.60978350  0.06651386  0.12845567    -0.12030
C1122       C  0.64207850  0.06088939  0.14829810     0.01910
H1123       H  0.60796270  0.06945745  0.23373446     0.14890
H1124       H  0.61028965  0.06455125  0.09910300     0.14890
C1125       C  0.67478779  0.05172106  0.12876687     0.36540
C1126       C  0.54406240  0.08356358  0.20487336     0.36450
N1127       N  0.70079505  0.04411300  0.11285767    -0.44520
N1128       N  0.51851126  0.09010264  0.22193247    -0.43800
C1129       C  0.57739060  0.13425240  0.09087283    -0.00210
C1130       C  0.59742411  0.12805114  0.05913557    -0.12090
C1131       C  0.62885588  0.14844323  0.05189950     0.02020
C1132       C  0.63976953  0.17625664  0.07597322    -0.00300
C1133       C  0.62069019  0.18152263  0.10827784    -0.12030
C1134       C  0.58991567  0.16043765  0.11614263     0.01910
H1135       H  0.58882739  0.10689802  0.04041430     0.14890
H1136       H  0.62978416  0.20221279  0.12729444     0.14890
C1137       C  0.57219560  0.16572014  0.15063691     0.36540
C1138       C  0.65100174  0.13888762  0.02111452     0.36450
N1139       N  0.55871387  0.16975638  0.17869494    -0.43800
N1140       N  0.66972918  0.13093329  0.99724474    -0.43800
C1141       C  0.38202826  0.06770452  0.18762125    -0.00210
C1142       C  0.38562955  0.04910747  0.15455434    -0.12090
C1143       C  0.41664777  0.05411993  0.13303198     0.02020
C1144       C  0.44484813  0.07717086  0.14514609    -0.00300
C1145       C  0.44076739  0.09631222  0.17779227    -0.12030
C1146       C  0.40956773  0.09185590  0.19900642     0.01910
H1147       H  0.36382118  0.03141540  0.14518721     0.14890
H1148       H  0.46152743  0.11567827  0.18607398     0.14890
C1149       C  0.40566217  0.11337139  0.23152962     0.36540
C1150       C  0.41762243  0.03842126  0.09725775     0.36450
N1151       N  0.40235248  0.13083092  0.25743885    -0.43800
N1152       N  0.41816138  0.02787677  0.06768585    -0.43800
C1153       C  0.37908333  0.17596902  0.08417225    -0.00210
C1154       C  0.40812080  0.19062204  0.10412044    -0.12090
C1155       C  0.44076422  0.17125168  0.10827905     0.02020
C1156       C  0.44495107  0.13678551  0.09178921    -0.00300
C1157       C  0.41634404  0.12294357  0.07049720    -0.12030
C1158       C  0.38319703  0.14167035  0.06739289     0.01910
H1159       H  0.40534169  0.21737812  0.11629817     0.14890
H1160       H  0.42004510  0.09776388  0.05585929     0.14890
C1161       C  0.35456675  0.12625443  0.04515965     0.36540
C1162       C  0.46957061  0.18767037  0.12935659     0.36450
N1163       N  0.33162799  0.11400131  0.02727222    -0.43800
N1164       N  0.49221754  0.20171624  0.14621410    -0.43800
C1165       C  0.51077603  0.02501046  0.13368991    -0.00210
C1166       C  0.49711701  0.00649506  0.16435493    -0.12090
C1167       C  0.49690114  0.96790472  0.16606182     0.02020
C1168       C  0.50944025  0.94724333  0.13618259    -0.00300
C1169       C  0.52297811  0.96601548  0.10581489    -0.12030
C1170       C  0.52420761  0.00403843  0.10444866     0.01910
H1171       H  0.48708430  0.02213757  0.18714040     0.14890
H1172       H  0.53265756  0.95065039  0.08261653     0.14890
C1173       C  0.53938135  0.02058065  0.07217872     0.36540
C1174       C  0.48493484  0.95053472  0.19909968     0.36450
N1175       N  0.55216472  0.03322880  0.04634192    -0.43800
N1176       N  0.47541082  0.93711737  0.22594505    -0.43800
C1177       C  0.50907736  0.12202619  0.96241884    -0.00210
C1178       C  0.52088259  0.15370736  0.98085723    -0.12090
C1179       C  0.52122037  0.15541649  0.01921589     0.02020
C1180       C  0.50965520  0.12509603  0.03988033    -0.00300
C1181       C  0.49629969  0.09437956  0.02152308    -0.12030
C1182       C  0.49549539  0.09264119  0.98366791     0.01910
H1183       H  0.52876777  0.17765074  0.96567839     0.14890
H1184       H  0.48580006  0.07147931  0.03707347     0.14890
C1185       C  0.47597293  0.06231872  0.96770504     0.36540
C1186       C  0.53262081  0.18870484  0.03671508     0.36450
N1187       N  0.45943435  0.03835887  0.95548105    -0.43800
N1188       N  0.54181017  0.21538670  0.05079411    -0.43800
C1189       C  0.91360664  0.83822037  0.56695264    -0.00210
C1190       C  0.88874094  0.81120624  0.57776043    -0.12090
C1191       C  0.89381104  0.79200627  0.61017680     0.02020
C1192       C  0.92451536  0.79939401  0.63184906    -0.00300
C1193       C  0.94909715  0.82686953  0.62161988    -0.12030
C1194       C  0.94359113  0.84680889  0.58960431     0.01910
H1195       H  0.86527301  0.80520291  0.56075269     0.14890
H1196       H  0.97252318  0.83275337  0.63872959     0.14890
C1197       C  0.96883277  0.87579015  0.58079366     0.36540
C1198       C  0.86754258  0.76452056  0.62044837     0.36450
N1199       N  0.98905066  0.89909715  0.57402353    -0.43800
N1200       N  0.84645718  0.74254009  0.62876392    -0.43800
C1201       C  0.85793706  0.89551524  0.56498083    -0.00210
C1202       C  0.87788685  0.90787392  0.59529750    -0.12090
C1203       C  0.86065279  0.91491074  0.62842317     0.02020
C1204       C  0.82255758  0.91144881  0.63086179    -0.00300
C1205       C  0.80240706  0.90169301  0.60034617    -0.12030
C1206       C  0.81950553  0.89342473  0.56774911     0.01910
H1207       H  0.90692809  0.91212355  0.59311424     0.14890
H1208       H  0.77290635  0.90012886  0.60217786     0.14890
C1209       C  0.79572942  0.88297235  0.53852296     0.36540
C1210       C  0.88231787  0.92685170  0.65899220     0.36450
N1211       N  0.77342145  0.87567164  0.51752497    -0.43800
N1212       N  0.89970520  0.93640629  0.68349379    -0.43800
C1213       C  0.82243880  0.90027615  0.36493926    -0.00210
C1214       C  0.80402535  0.88392512  0.39388077    -0.12090
C1215       C  0.82145183  0.87852004  0.42727290     0.02020
C1216       C  0.85710677  0.89252079  0.43297925    -0.00300
C1217       C  0.87510361  0.91022444  0.40428804    -0.12030
C1218       C  0.85851210  0.91300254  0.36995004     0.01910
H1219       H  0.77678992  0.87315199  0.38956718     0.14890
H1220       H  0.90281667  0.91982567  0.40816733     0.14890
C1221       C  0.87832240  0.93020571  0.34070699     0.36540
C1222       C  0.80716857  0.84987244  0.45015886     0.36450
N1223       N  0.89414052  0.94391905  0.31717948    -0.43800
N1224       N  0.79667753  0.82513194  0.46674099    -0.43800
C1225       C  0.91010438  0.82590978  0.43411214    -0.00210
C1226       C  0.88901991  0.82642000  0.40193938    -0.12090
C1227       C  0.89938268  0.80897916  0.37016670     0.02020
C1228       C  0.93154637  0.78847248  0.36980045    -0.00300
C1229       C  0.94938382  0.78220458  0.40306849    -0.12030
C1230       C  0.93573673  0.79704955  0.43540949     0.01910
H1231       H  0.86228503  0.83643114  0.40114884     0.14890
H1232       H  0.97064785  0.76182067  0.40477109     0.14890
C1233       C  0.93387881  0.77122646  0.46480361     0.36540
C1234       C  0.87447614  0.81031254  0.33960205     0.36450
N1235       N  0.93029172  0.74808606  0.48594220    -0.43800
N1236       N  0.85414829  0.81105855  0.31549227    -0.43800
C1237       C  0.92347850  0.13019016  0.56590405    -0.00210
C1238       C  0.95512402  0.12611195  0.58702527    -0.12090
C1239       C  0.95995305  0.14634085  0.61900887     0.02020
C1240       C  0.93282908  0.17115972  0.63024903    -0.00300
C1241       C  0.90136115  0.17535791  0.60916216    -0.12030
C1242       C  0.89657130  0.15537589  0.57713344     0.01910
H1243       H  0.97558890  0.10644093  0.57903953     0.14890
H1244       H  0.88083268  0.19490925  0.61731906     0.14890
C1245       C  0.86383662  0.16151627  0.55610879     0.36540
C1246       C  0.99244329  0.14040021  0.64046404     0.36450
N1247       N  0.83752756  0.16666295  0.53944222    -0.43800
N1248       N  0.01834718  0.13542808  0.65780868    -0.43800
C1249       C  0.86555516  0.07308614  0.56730540    -0.00210
C1250       C  0.88295476  0.06681439  0.60084612    -0.12090
C1251       C  0.86304632  0.06381600  0.63311256     0.02020
C1252       C  0.82462636  0.06588577  0.63219546    -0.00300
C1253       C  0.80700996  0.07033993  0.59862474    -0.12030
C1254       C  0.82696730  0.07446842  0.56645235     0.01910
H1255       H  0.91234649  0.06467562  0.60200442     0.14890
H1256       H  0.77748499  0.07153780  0.59766554     0.14890
C1257       C  0.80708101  0.08196035  0.53331820     0.36540
C1258       C  0.88284554  0.05737065  0.66647970     0.36450
N1259       N  0.79106860  0.08806919  0.50683582    -0.43800
N1260       N  0.89899895  0.05218556  0.69306129    -0.43800
C1261       C  0.93685012  0.16856359  0.37044870    -0.00210
C1262       C  0.92960903  0.18614537  0.40325858    -0.12090
C1263       C  0.92425805  0.16620194  0.43530682     0.02020
C1264       C  0.92706423  0.12760188  0.43519365    -0.00300
C1265       C  0.93615046  0.11012940  0.40256806    -0.12030
C1266       C  0.94084290  0.13019129  0.37030781     0.01910
H1267       H  0.92677242  0.21560713  0.40357249     0.14890
H1268       H  0.93897322  0.08068402  0.40220770     0.14890
C1269       C  0.95094796  0.11087151  0.33778886     0.36540
C1270       C  0.91338479  0.18619653  0.46717677     0.36450
N1271       N  0.95928767  0.09528867  0.31183957    -0.43800
N1272       N  0.90468773  0.20281225  0.49235429    -0.43800
C1273       C  0.86618145  0.07374092  0.43456123    -0.00210
C1274       C  0.86433391  0.03917000  0.41889189    -0.12090
C1275       C  0.83846193  0.03173316  0.39200123     0.02020
C1276       C  0.82078133  0.06030191  0.37324448    -0.00300
C1277       C  0.82475968  0.09575875  0.38679290    -0.12030
C1278       C  0.84469135  0.10202921  0.41898120     0.01910
H1279       H  0.88009363  0.01695420  0.43037191     0.14890
H1280       H  0.80972858  0.11789055  0.37414429     0.14890
C1281       C  0.83961939  0.13645430  0.43706350     0.36540
C1282       C  0.82327970  0.99592070  0.39206498     0.36450
N1283       N  0.83421098  0.16391416  0.45145589    -0.43800
N1284       N  0.80766432  0.96880550  0.39510402    -0.43800
C1285       C  0.86901915  0.94272682  0.49916149    -0.00210
C1286       C  0.89924983  0.95998375  0.51519393    -0.12090
C1287       C  0.90120693  0.99783027  0.51914569     0.02020
C1288       C  0.87403157  0.02060874  0.50372322    -0.00300
C1289       C  0.84243619  0.00358832  0.48987132    -0.12030
C1290       C  0.83946152  0.96506956  0.48804383     0.01910
H1291       H  0.92148702  0.94346997  0.52568026     0.14890
H1292       H  0.82021941  0.02039084  0.47999693     0.14890
C1293       C  0.80524485  0.94985132  0.47628227     0.36540
C1294       C  0.93110424  0.01195739  0.54056558     0.36450
N1295       N  0.77715660  0.93892824  0.46685474    -0.43800
N1296       N  0.95491630  0.02252523  0.55840606    -0.43800
C1297       C  0.16182228  0.07965634  0.56331448    -0.00210
C1298       C  0.14398698  0.06690334  0.59465655    -0.12090
C1299       C  0.16291632  0.06207680  0.62746271     0.02020
C1300       C  0.20070268  0.06902618  0.62907951    -0.00300
C1301       C  0.21868071  0.08147071  0.59797098    -0.12030
C1302       C  0.19945115  0.08818048  0.56571955     0.01910
H1303       H  0.11480336  0.06342129  0.59450659     0.14890
H1304       H  0.24742972  0.08826080  0.59961903     0.14890
C1305       C  0.21649377  0.11180877  0.53928529     0.36540
C1306       C  0.14275658  0.05061105  0.65913021     0.36450
N1307       N  0.22994578  0.13170027  0.51882969    -0.43800
N1308       N  0.12634547  0.04164449  0.68442508    -0.43800
C1309       C  0.11175242  0.14787061  0.56348125    -0.00210
C1310       C  0.13732806  0.14984673  0.59208103    -0.12090
C1311       C  0.12922881  0.16721230  0.62473091     0.02020
C1312       C  0.09509126  0.18433893  0.62869084    -0.00300
C1313       C  0.07349147  0.18895385  0.59739930    -0.12030
C1314       C  0.08601880  0.17630975  0.56383428     0.01910
H1315       H  0.16466659  0.14068048  0.58880453     0.14890
H1316       H  0.05058507  0.20758443  0.59793744     0.14890
C1317       C  0.09259965  0.20560264  0.53856708     0.36540
C1318       C  0.15772814  0.16925102  0.65182463     0.36450
N1319       N  0.09989920  0.23033150  0.52033672    -0.43800
N1320       N  0.18109849  0.17080491  0.67298887    -0.43800
C1321       C  0.10175435  0.14081090  0.43361950    -0.00210
C1322       C  0.10779172  0.17868227  0.43347555    -0.12090
C1323       C  0.10189134  0.19916307  0.40209765     0.02020
C1324       C  0.08961090  0.18167933  0.37043467    -0.00300
C1325       C  0.08216903  0.14414494  0.37080127    -0.12030
C1326       C  0.08773532  0.12364418  0.40241662     0.01910
H1327       H  0.11911436  0.19179519  0.45736695     0.14890
H1328       H  0.07132896  0.13108520  0.34664269     0.14890
C1329       C  0.07821219  0.08552352  0.40253922     0.36540
C1330       C  0.11001356  0.23773850  0.40255709     0.36450
N1331       N  0.06980012  0.05511381  0.40251885    -0.43800
N1332       N  0.11660605  0.26862666  0.40287083    -0.43800
C1333       C  0.21499702  0.08475384  0.37088340    -0.00210
C1334       C  0.22571505  0.06773578  0.40345580    -0.12090
C1335       C  0.20873504  0.07652077  0.43662692     0.02020
C1336       C  0.17568253  0.09706152  0.43631883    -0.00300
C1337       C  0.17386759  0.12147764  0.40661000    -0.12030
C1338       C  0.19190621  0.11517795  0.37389954     0.01910
H1339       H  0.24759600  0.04789691  0.40321324     0.14890
H1340       H  0.16102959  0.14730811  0.40883475     0.14890
C1341       C  0.18769706  0.14209007  0.34546231     0.36540
C1342       C  0.22697349  0.06414080  0.46930135     0.36450
N1343       N  0.18400437  0.16433182  0.32334955    -0.43800
N1344       N  0.24252345  0.05208958  0.49399325    -0.43800
C1345       C  0.05441073  0.12736447  0.49792975    -0.00210
C1346       C  0.03843066  0.09278114  0.49417927    -0.12090
C1347       C  0.00051969  0.08772642  0.49419002     0.02020
C1348       C  0.97695125  0.11745925  0.50076789    -0.00300
C1349       C  0.99240158  0.15235796  0.50199246    -0.12030
C1350       C  0.03005962  0.15764408  0.49663655     0.01910
H1351       H  0.05578886  0.06970583  0.48855081     0.14890
H1352       H  0.97471884  0.17583380  0.50361112     0.14890
C1353       C  0.03962294  0.19233826  0.48098762     0.36540
C1354       C  0.98686754  0.05224523  0.48408308     0.36450
N1355       N  0.04446650  0.22033330  0.46713523    -0.43800
N1356       N  0.97693668  0.02379146  0.47471702    -0.43800
C1357       C  0.08284634  0.80708556  0.62969843    -0.00210
C1358       C  0.09023717  0.78825062  0.59774254    -0.12090
C1359       C  0.09729351  0.80675241  0.56532426     0.02020
C1360       C  0.09491597  0.84538634  0.56370713    -0.00300
C1361       C  0.08680957  0.86435203  0.59586146    -0.12030
C1362       C  0.08146120  0.84558180  0.62886523     0.01910
H1363       H  0.09161487  0.75866686  0.59839777     0.14890
H1364       H  0.08537178  0.89390071  0.59528549     0.14890
C1365       C  0.07370440  0.86631799  0.66114200     0.36540
C1366       C  0.10957724  0.78471233  0.53538952     0.36450
N1367       N  0.06755530  0.88314895  0.68693114    -0.43800
N1368       N  0.12027188  0.76497702  0.51344234    -0.43800
C1369       C  0.15938662  0.89767560  0.56173856    -0.00210
C1370       C  0.17191507  0.93285417  0.57113638    -0.12090
C1371       C  0.19649243  0.93901687  0.59956886     0.02020
C1372       C  0.20366849  0.91141993  0.62529734    -0.00300
C1373       C  0.19240064  0.87592722  0.61633655    -0.12030
C1374       C  0.17425223  0.86869023  0.58310254     0.01910
H1375       H  0.16462241  0.95662680  0.55619248     0.14890
H1376       H  0.20091434  0.85340913  0.63355837     0.14890
C1377       C  0.17825232  0.83242212  0.56884843     0.36540
C1378       C  0.21729680  0.97221853  0.59729175     0.36450
N1379       N  0.18405523  0.80341469  0.55804557    -0.43800
N1380       N  0.23424422  0.99806217  0.59101600    -0.43800
C1381       C  0.08892385  0.84641168  0.43091389    -0.00210
C1382       C  0.09581466  0.80884292  0.43321153    -0.12090
C1383       C  0.09323890  0.78609561  0.40283654     0.02020
C1384       C  0.08549007  0.80122180  0.36854085    -0.00300
C1385       C  0.07685174  0.83843063  0.36610022    -0.12030
C1386       C  0.07711698  0.86071996  0.39710580     0.01910
H1387       H  0.10421332  0.79740124  0.45873890     0.14890
H1388       H  0.06852076  0.84979245  0.34011041     0.14890
C1389       C  0.06185509  0.89669733  0.39366509     0.36540
C1390       C  0.09954553  0.74748335  0.40739402     0.36450
N1391       N  0.04810374  0.92478991  0.38952208    -0.43800
N1392       N  0.10426626  0.71648463  0.41111968    -0.43800
C1393       C  0.19487860  0.91254327  0.36818774    -0.00210
C1394       C  0.16858772  0.93864546  0.37717555    -0.12090
C1395       C  0.14463276  0.93289887  0.40624799     0.02020
C1396       C  0.14787302  0.90116364  0.42804516    -0.00300
C1397       C  0.17316133  0.87432945  0.41783962    -0.12030
C1398       C  0.19618246  0.87955295  0.38788177     0.01910
H1399       H  0.16687969  0.96370716  0.36148744     0.14890
H1400       H  0.17538841  0.84950546  0.43382093     0.14890
C1401       C  0.22171959  0.85124756  0.37853364     0.36540
C1402       C  0.11827103  0.96081494  0.41396142     0.36450
N1403       N  0.24212390  0.82851763  0.37092712    -0.43800
N1404       N  0.09748094  0.98356754  0.42021969    -0.43800
C1405       C  0.14189325  0.95223176  0.49591966    -0.00210
C1406       C  0.11463980  0.97265724  0.51326210    -0.12090
C1407       C  0.11644465  0.01106971  0.51528902     0.02020
C1408       C  0.14356411  0.03101480  0.49557741    -0.00300
C1409       C  0.16688625  0.00929146  0.47420530    -0.12030
C1410       C  0.16987606  0.97148137  0.47860574     0.01910
H1411       H  0.09278039  0.95825972  0.52700605     0.14890
H1412       H  0.18216705  0.01999058  0.45243906     0.14890
C1413       C  0.20187926  0.95344261  0.46477479     0.36540
C1414       C  0.08822543  0.02813257  0.53630623     0.36450
N1415       N  0.22783520  0.93944794  0.45383910    -0.43800
N1416       N  0.06482494  0.04004240  0.55358148    -0.43800
C1417       C  0.04160870  0.85571427  0.49866606    -0.00210
C1418       C  0.02544320  0.82375506  0.51221489    -0.12090
C1419       C  0.98734204  0.81993696  0.51463183     0.02020
C1420       C  0.96392451  0.84664036  0.49887204    -0.00300
C1421       C  0.98027061  0.87829506  0.48468666    -0.12030
C1422       C  0.01811893  0.88369321  0.48601707     0.01910
H1423       H  0.04223334  0.80170007  0.52176490     0.14890
H1424       H  0.96304882  0.90015201  0.47455426     0.14890
C1425       C  0.03167442  0.91952989  0.47688493     0.36540
C1426       C  0.97419591  0.78956967  0.53585848     0.36450
N1427       N  0.04176475  0.94866601  0.47006363    -0.43800
N1428       N  0.96498035  0.76530980  0.55386177    -0.43800
loop_ 
_geom_bond_atom_site_label_1 
_geom_bond_atom_site_label_2 
_geom_bond_distance 
_geom_bond_site_symmetry_2 
_ccdc_geom_bond_type 
C1            C2   1.415       .  A
C1            C6   1.415       .  A
C1         C1381   1.504       .  S
C2            C3   1.434       .  A
C2         C1417   1.511       .  S
C3            C4   1.441       .  A
C3         C1360   1.499       .  S
C4            C5   1.437       .  A
C4         C1369   1.545       .  S
C5            C6   1.425       .  A
C5         C1405   1.499       .  S
C6         C1396   1.499       .  S
C7            C8   1.432       .  A
C7           C12   1.449       .  A
C7         C1336   1.556       .  S
C8            C9   1.428       .  A
C8         C1408   1.546       .  S
C9           C10   1.446       .  A
C9         C1297   1.493       .  S
C10          C11   1.426       .  A
C10        C1309   1.529       .  S
C11          C12   1.415       .  A
C11        C1345   1.525       .  S
C12        C1321   1.471       .  S
C13          C14   1.416       .  A
C13          C18   1.425       .  A
C13        C1237   1.491       .  S
C14          C15   1.412       .  A
C14        C1348   1.502       .  S
C15          C16   1.426       .  A
C15        C1264   1.499       .  S
C16          C17   1.430       .  A
C16        C1273   1.499       .  S
C17          C18   1.414       .  A
C17        C1288   1.513       .  S
C18        C1249   1.503       .  S
C19          C20   1.434       .  A
C19          C24   1.453       .  A
C19        C1225   1.546       .  S
C20          C21   1.417       .  A
C20        C1420   1.513       .  S
C21          C22   1.416       .  A
C21        C1189   1.477       .  S
C22          C23   1.403       .  A
C22        C1201   1.496       .  S
C23          C24   1.422       .  A
C23        C1285   1.512       .  S
C24        C1216   1.479       .  S
C25          C26   1.409       .  A
C25          C30   1.416       .  A
C25        C1156   1.492       .  S
C26          C27   1.416       .  A
C26        C1180   1.497       .  S
C27          C28   1.422       .  A
C27        C1129   1.481       .  S
C28          C29   1.412       .  A
C28        C1120   1.500       .  S
C29          C30   1.413       .  A
C29        C1165   1.501       .  S
C30        C1144   1.479       .  S
C31          C32   1.424       .  A
C31          C36   1.427       .  A
C31        C1093   1.506       .  S
C32          C33   1.420       .  A
C32        C1177   1.511       .  S
C33          C34   1.427       .  A
C33        C1072   1.496       .  S
C34          C35   1.421       .  A
C34        C1057   1.503       .  S
C35          C36   1.417       .  A
C35        C1105   1.516       .  S
C36        C1084   1.492       .  S
C37          C38   1.412       .  A
C37          C42   1.420       .  A
C37        C1021   1.485       .  S
C38          C39   1.411       .  A
C38        C1168   1.502       .  S
C39          C40   1.419       .  A
C39         C997   1.486       .  S
C40          C41   1.411       .  A
C40        C1009   1.486       .  S
C41          C42   1.413       .  A
C41        C1045   1.499       .  S
C42        C1033   1.485       .  S
C43          C44   1.423       .  A
C43          C48   1.420       .  A
C43         C973   1.491       .  S
C44          C45   1.414       .  A
C44        C1108   1.509       .  S
C45          C46   1.428       .  A
C45         C949   1.497       .  S
C46          C47   1.425       .  A
C46         C964   1.498       .  S
C47          C48   1.406       .  A
C47        C1048   1.512       .  S
C48         C985   1.489       .  S
C49          C50   1.426       .  A
C49          C54   1.428       .  A
C49         C901   1.505       .  S
C50          C51   1.428       .  A
C50         C937   1.515       .  S
C51          C52   1.431       .  A
C51         C877   1.511       .  S
C52          C53   1.418       .  A
C52         C892   1.490       .  S
C53          C54   1.409       .  A
C53         C925   1.511       .  S
C54         C913   1.481       .  S
C55          C56   1.399       .  A
C55          C60   1.413       .  A
C55         C829   1.494       .  S
C56          C57   1.413       .  A
C56         C928   1.490       .  S
C57          C58   1.443       .  A
C57         C856   1.494       .  S
C58          C59   1.447       .  A
C58         C844   1.545       .  S
C59          C60   1.421       .  A
C59         C865   1.492       .  S
C60         C820   1.489       .  S
C61          C62   1.402       .  A
C61          C66   1.408       .  A
C61         C760   1.485       .  S
C62          C63   1.426       .  A
C62         C868   1.501       .  S
C63          C64   1.454       .  A
C63         C784   1.499       .  S
C64          C65   1.427       .  A
C64         C796   1.535       .  S
C65          C66   1.412       .  A
C65         C808   1.522       .  S
C66         C769   1.479       .  S
C67          C68   1.416       .  A
C67          C72   1.425       .  A
C67         C709   1.492       .  S
C68          C69   1.415       .  A
C68         C940   1.504       .  S
C69          C70   1.422       .  A
C69         C736   1.493       .  S
C70          C71   1.420       .  A
C70         C745   1.496       .  S
C71          C72   1.423       .  A
C71         C805   1.510       .  S
C72         C721   1.493       .  S
C73         C110   1.465       .  S
C73         C600   1.468       .  S
C73          N91   1.346       .  A
N74          N91   1.317       .  A
N74          N96   1.322       .  A
N74        Co111   2.083       .  S
C75         C113   1.450       .  S
C75         N100   1.326       .  A
C75         H120   1.080       .  S
H76         C117   1.082       .  S
C77          C81   1.454       .  S
C77         N101   1.331       .  A
C77         H106   1.074       .  S
Co78         N96   2.096       .  S
Co78         N86   2.098   1_565  S
Co78        N118   2.091       .  S
Co78         N94   2.110   1_565  S
Co78       Cl122   2.503       .  S
N79         C117   1.328       .  A
N79          N86   1.319       .  A
N79         Co80   2.065       .  S
Co80         N83   2.083       .  S
Co80        N100   2.065       .  S
Co80         N87   2.086       .  S
Co80       Cl122   2.404   1_545  S
C81        C1300   1.474       .  S
C81         N119   1.352       .  A
N82          N89   1.319       .  A
N82         N112   1.328       .  A
N82        Co115   2.100       .  S
N83         N101   1.315       .  A
N83         N119   1.326       .  A
N84         C113   1.360       .  A
N84          N94   1.336       .  A
H85         C110   1.081       .  S
N86         N107   1.331       .  A
N87         N105   1.317       .  A
N87          N92   1.326       .  A
C88         C116   1.462       .  S
C88        C1081   1.480       .  S
C88          N92   1.349       .  A
N89         C104   1.349       .  A
N89        Co111   2.111       .  S
C90          C93   1.463       .  S
C90         N118   1.347       .  A
C90         H124   1.081       .  S
C93         C240   1.465       .  S
C93         N114   1.347       .  A
N94         N100   1.319       .  A
N95         C121   1.344       .  A
N95          N97   1.319       .  A
N95        Co111   2.094       .  S
N96         C110   1.349       .  A
N97         N125   1.327       .  A
N97        Co115   2.093       .  S
H98         C121   1.081       .  S
H99         C116   1.081       .  S
N101       Co115   2.061   1_545  S
N102        N114   1.319       .  A
N102        N118   1.323       .  A
N102       Co111   2.094       .  S
C103        C117   1.450       .  S
C103        C126   1.465       .  S
C103        N107   1.356       .  A
C104        C123   1.470       .  S
C104        H108   1.081       .  S
N105        C116   1.337       .  A
N105       Co115   2.076   1_545  S
C109        C121   1.460       .  S
C109        C976   1.487       .  S
C109        N125   1.353       .  A
Co111      Cl122   2.419       .  S
N112        C123   1.353       .  A
C113        C421   1.478       .  S
Co115      Cl122   2.483       .  S
C123       C1372   1.501       .  S
C126        C163   1.466       .  S
C126        N144   1.344       .  A
N127        N144   1.316       .  A
N127        N149   1.320       .  A
N127       Co164   2.081       .  S
C128        C166   1.455       .  S
C128        N153   1.331       .  A
C128        H173   1.082       .  S
H129        C170   1.082       .  S
C130        C134   1.448       .  S
C130        N154   1.336       .  A
C130        H159   1.081       .  S
Co131       N149   2.088       .  S
Co131       N139   2.104   1_455  S
Co131       N171   2.109       .  S
Co131       N147   2.086   1_455  S
Co131      Cl175   2.495       .  S
N132        C170   1.329       .  A
N132        N139   1.321       .  A
N132       Co133   2.070       .  S
Co133       N136   2.109       .  S
Co133       N153   2.087       .  S
Co133       N140   2.097       .  S
Co133      Cl175   2.407   1_655  S
C134       C1240   1.476       .  S
C134        N172   1.355       .  A
N135        N142   1.316       .  A
N135        N165   1.323       .  A
N135       Co168   2.076       .  S
N136        N154   1.317       .  A
N136        N172   1.330       .  A
N137        C166   1.352       .  A
N137        N147   1.329       .  A
H138        C163   1.081       .  S
N139        N160   1.332       .  A
N140        N158   1.317       .  A
N140        N145   1.328       .  A
C141        C169   1.455       .  S
C141        C733   1.480       .  S
C141        N145   1.353       .  A
N142        C157   1.335       .  A
N142       Co164   2.069       .  S
C143        C146   1.471       .  S
C143        N171   1.351       .  A
C143        H177   1.081       .  S
C146        C431   1.473       .  S
C146        N167   1.344       .  A
N147        N153   1.322       .  A
N148        C174   1.336       .  A
N148        N150   1.318       .  A
N148       Co164   2.086       .  S
N149        C163   1.349       .  A
N150        N178   1.321       .  A
N150       Co168   2.049       .  S
H151        C174   1.081       .  S
H152        C169   1.080       .  S
N154       Co168   2.057   1_655  S
N155        N167   1.319       .  A
N155        N171   1.321       .  A
N155       Co164   2.073       .  S
C156        C170   1.449       .  S
C156        C603   1.466       .  S
C156        N160   1.356       .  A
C157        C176   1.458       .  S
C157        H161   1.078       .  S
N158        C169   1.342       .  A
N158       Co168   2.081   1_655  S
C162        C174   1.461       .  S
C162        C904   1.461       .  S
C162        N178   1.339       .  A
Co164      Cl175   2.403       .  S
N165        C176   1.351       .  A
C166        C512   1.464       .  S
Co168      Cl175   2.488       .  S
C176       C1312   1.479       .  S
C179        C216   1.466       .  S
C179        C388   1.464       .  S
C179        N197   1.343       .  A
N180        N197   1.316       .  A
N180        N202   1.320       .  A
N180       Co217   2.076       .  S
C181        C219   1.454       .  S
C181        N206   1.331       .  A
C181        H226   1.082       .  S
H182        C223   1.082       .  S
C183        C187   1.454       .  S
C183        N207   1.338       .  A
C183        H212   1.080       .  S
Co184       N202   2.090       .  S
Co184       N192   2.091   1_455  S
Co184       N224   2.086       .  S
Co184       N200   2.092   1_455  S
Co184      Cl228   2.495       .  S
N185        C223   1.332       .  A
N185        N192   1.321       .  A
N185       Co186   2.083       .  S
Co186       N189   2.083       .  S
Co186       N206   2.077       .  S
Co186       N193   2.087       .  S
Co186      Cl228   2.404   1_655  S
C187       C1228   1.479       .  S
C187        N225   1.351       .  A
N188        N195   1.318       .  A
N188        N218   1.325       .  A
N188       Co221   2.080       .  S
N189        N207   1.316       .  A
N189        N225   1.321       .  A
N190        C219   1.354       .  A
N190        N200   1.331       .  A
H191        C216   1.081       .  S
N192        N213   1.330       .  A
N193        N211   1.319       .  A
N193        N198   1.325       .  A
C194        C222   1.455       .  S
C194        C757   1.468       .  S
C194        N198   1.348       .  A
N195        C210   1.344       .  A
N195       Co217   2.093       .  S
C196        C199   1.464       .  S
C196        N224   1.347       .  A
C196        H230   1.081       .  S
C199        C268   1.458       .  S
C199        N220   1.343       .  A
N200        N206   1.320       .  A
N201        C227   1.344       .  A
N201        N203   1.316       .  A
N201       Co217   2.095       .  S
N202        C216   1.349       .  A
N203        N231   1.323       .  A
N203       Co221   2.065       .  S
H204        C227   1.081       .  S
H205        C222   1.081       .  S
N207       Co221   2.057   1_655  S
N208        N220   1.314       .  A
N208        N224   1.321       .  A
N208       Co217   2.073       .  S
C209        C223   1.455       .  S
C209        C452   1.468       .  S
C209        N213   1.354       .  A
C210        C229   1.460       .  S
C210        H214   1.080       .  S
N211        C222   1.341       .  A
N211       Co221   2.080   1_655  S
C215        C227   1.461       .  S
C215        C817   1.472       .  S
C215        N231   1.346       .  A
Co217      Cl228   2.403       .  S
N218        C229   1.347       .  A
C219        C676   1.466       .  S
Co221      Cl228   2.487       .  S
C229       C1384   1.479       .  S
C232        C269   1.454       .  S
C232       C1036   1.468       .  S
C232        N250   1.350       .  A
N233        N250   1.324       .  A
N233        N255   1.318       .  A
N233       Co270   2.084       .  S
C234        C272   1.453       .  S
C234        N259   1.342       .  A
C234        H279   1.080       .  S
H235        C276   1.081       .  S
C236        C240   1.468       .  S
C236        N260   1.349       .  A
C236        H265   1.081       .  S
Co237       N255   2.074   1_556  S
Co237       N245   2.077       .  S
Co237       N277   2.074   1_556  S
Co237       N253   2.073       .  S
Co237      Cl281   2.478       .  S
N238        C276   1.339       .  A
N238        N245   1.318       .  A
N238       Co239   2.075       .  S
Co239       N242   2.075       .  S
Co239       N259   2.080       .  S
Co239       N246   2.061       .  S
Co239      Cl281   2.409       .  S
C240        N278   1.343       .  A
N241        N248   1.321       .  A
N241        N271   1.333       .  A
N241       Co274   2.104       .  S
N242        N260   1.321       .  A
N242        N278   1.318       .  A
N243        C272   1.346       .  A
N243        N253   1.322       .  A
H244        C269   1.081       .  S
N245        N266   1.324       .  A
N246        N264   1.319       .  A
N246        N251   1.315       .  A
C247        C275   1.470       .  S
C247        C586   1.464       .  S
C247        N251   1.339       .  A
N248        C263   1.329       .  A
N248       Co270   2.074       .  S
C249        C252   1.456       .  S
C249        N277   1.340       .  A
C249        H283   1.081       .  S
C252        C832   1.471       .  S
C252        N273   1.350       .  A
N253        N259   1.318       .  A
N254        C280   1.327       .  A
N254        N256   1.320       .  A
N254       Co270   2.067       .  S
N255        C269   1.339       .  A
N256        N284   1.329       .  A
N256       Co274   2.092       .  S
H257        C280   1.082       .  S
H258        C275   1.081       .  S
N260       Co274   2.100   1_556  S
N261        N273   1.326       .  A
N261        N277   1.316       .  A
N261       Co270   2.088       .  S
C262        C276   1.455       .  S
C262        C988   1.471       .  S
C262        N266   1.347       .  A
C263        C282   1.452       .  S
C263        H267   1.081       .  S
N264        C275   1.351       .  A
N264       Co274   2.102   1_556  S
C268        C280   1.450       .  S
C268        N284   1.354       .  A
Co270      Cl281   2.406   1_554  S
N271        C282   1.357       .  A
C272        C889   1.469       .  S
Co274      Cl281   2.498   1_554  S
C282        C374   1.475       .  S
C285        C322   1.447       .  S
C285       C1324   1.456       .  S
C285        N303   1.348       .  A
N286        N303   1.323       .  A
N286        N308   1.317       .  A
N286       Co323   2.077       .  S
C287        C325   1.462       .  S
C287        N312   1.342       .  A
C287        H332   1.080       .  S
H288        C329   1.080       .  S
C289        C293   1.468       .  S
C289        N313   1.350       .  A
C289        H318   1.081       .  S
Co290       N308   2.058       .  S
Co290       N298   2.082   1_455  S
Co290       N330   2.067       .  S
Co290       N306   2.072   1_455  S
Co290      Cl334   2.491       .  S
N291        C329   1.344       .  A
N291        N298   1.318       .  A
N291       Co292   2.093       .  S
Co292       N295   2.069       .  S
Co292       N312   2.091       .  S
Co292       N299   2.078       .  S
Co292      Cl334   2.405   1_655  S
C293        C494   1.462       .  S
C293        N331   1.340       .  A
N294        N301   1.320       .  A
N294        N324   1.331       .  A
N294       Co327   2.101       .  S
N295        N313   1.320       .  A
N295        N331   1.314       .  A
N296        C325   1.347       .  A
N296        N306   1.325       .  A
H297        C322   1.081       .  S
N298        N319   1.326       .  A
N299        N317   1.322       .  A
N299        N304   1.317       .  A
C300        C328   1.466       .  S
C300        C533   1.466       .  S
C300        N304   1.343       .  A
N301        C316   1.331       .  A
N301       Co323   2.075       .  S
C302        C305   1.460       .  S
C302        N330   1.341       .  A
C302        H336   1.080       .  S
C305        C841   1.480       .  S
C305        N326   1.349       .  A
N306        N312   1.316       .  A
N307        C333   1.332       .  A
N307        N309   1.321       .  A
N307       Co323   2.079       .  S
N308        C322   1.334       .  A
N309        N337   1.332       .  A
N309       Co327   2.105       .  S
H310        C333   1.081       .  S
H311        C328   1.081       .  S
N313       Co327   2.096   1_655  S
N314        N326   1.319       .  A
N314        N330   1.317       .  A
N314       Co323   2.083       .  S
C315        C329   1.458       .  S
C315       C1261   1.481       .  S
C315        N319   1.349       .  A
C316        C335   1.453       .  S
C316        H320   1.082       .  S
N317        C328   1.349       .  A
N317       Co327   2.099   1_655  S
C321        C333   1.452       .  S
C321        C411   1.473       .  S
C321        N337   1.357       .  A
Co323      Cl334   2.404       .  S
N324        C335   1.356       .  A
C325        C781   1.481       .  S
Co327      Cl334   2.495       .  S
C335        C346   1.469       .  S
C338        C375   1.462       .  S
C338       C1393   1.479       .  S
C338        N356   1.348       .  A
N339        N356   1.326       .  A
N339        N361   1.319       .  A
N339       Co376   2.086       .  S
C340        C378   1.454       .  S
C340        N365   1.340       .  A
C340        H385   1.081       .  S
H341        C382   1.077       .  S
C342        C346   1.469       .  S
C342        N366   1.351       .  A
C342        H371   1.081       .  S
Co343       N361   2.092       .  S
Co343       N351   2.083   1_565  S
Co343       N383   2.086       .  S
Co343       N359   2.084   1_565  S
Co343      Cl387   2.485       .  S
N344        C382   1.337       .  A
N344        N351   1.315       .  A
N344       Co345   2.082       .  S
Co345       N348   2.077       .  S
Co345       N365   2.080       .  S
Co345       N352   2.073       .  S
Co345      Cl387   2.405   1_545  S
C346        N384   1.344       .  A
N347        N354   1.321       .  A
N347        N377   1.330       .  A
N347       Co380   2.094       .  S
N348        N366   1.322       .  A
N348        N384   1.317       .  A
N349        C378   1.348       .  A
N349        N359   1.324       .  A
H350        C375   1.081       .  S
N351        N372   1.327       .  A
N352        N370   1.320       .  A
N352        N357   1.316       .  A
C353        C381   1.468       .  S
C353        C391   1.464       .  S
C353        N357   1.342       .  A
N354        C369   1.330       .  A
N354       Co376   2.074       .  S
C355        C358   1.456       .  S
C355        N383   1.343       .  A
C355        H389   1.081       .  S
C358       C1024   1.476       .  S
C358        N379   1.349       .  A
N359        N365   1.318       .  A
N360        C386   1.329       .  A
N360        N362   1.321       .  A
N360       Co376   2.073       .  S
N361        C375   1.344       .  A
N362        N390   1.333       .  A
N362       Co380   2.108       .  S
H363        C386   1.081       .  S
H364        C381   1.081       .  S
N366       Co380   2.103   1_545  S
N367        N379   1.326       .  A
N367        N383   1.317       .  A
N367       Co376   2.085       .  S
C368        C382   1.467       .  S
C368       C1333   1.493       .  S
C368        N372   1.354       .  A
C369        C388   1.451       .  S
C369        H373   1.082       .  S
N370        C381   1.349       .  A
N370       Co380   2.095   1_545  S
C374        C386   1.452       .  S
C374        N390   1.358       .  A
Co376      Cl387   2.410       .  S
N377        C388   1.354       .  A
C378       C1141   1.468       .  S
Co380      Cl387   2.499       .  S
C391        C428   1.463       .  S
C391        N409   1.346       .  A
N392        N409   1.318       .  A
N392        N414   1.321       .  A
N392       Co429   2.090       .  S
C393        C431   1.458       .  S
C393        N418   1.336       .  A
C393        H438   1.082       .  S
H394        C435   1.081       .  S
C395        C399   1.454       .  S
C395        N419   1.330       .  A
C395        H424   1.080       .  S
Co396       N414   2.084   1_556  S
Co396       N404   2.112       .  S
Co396       N436   2.109   1_556  S
Co396       N412   2.091       .  S
Co396      Cl440   2.499   1_556  S
N397        C435   1.327       .  A
N397        N404   1.320       .  A
N397       Co398   2.068       .  S
Co398       N401   2.109       .  S
Co398       N418   2.095       .  S
Co398       N405   2.085       .  S
Co398      Cl440   2.413   1_556  S
C399       C1096   1.481       .  S
C399        N437   1.358       .  A
N400        N407   1.318       .  A
N400        N430   1.324       .  A
N400       Co433   2.086       .  S
N401        N419   1.315       .  A
N401        N437   1.329       .  A
N402        C431   1.353       .  A
N402        N412   1.330       .  A
H403        C428   1.081       .  S
N404        N425   1.335       .  A
N405        N423   1.316       .  A
N405        N410   1.324       .  A
C406        C434   1.454       .  S
C406        C916   1.468       .  S
C406        N410   1.352       .  A
N407        C422   1.342       .  A
N407       Co429   2.082       .  S
C408        C411   1.469       .  S
C408        N436   1.351       .  A
C408        H442   1.081       .  S
C411        N432   1.346       .  A
N412        N418   1.322       .  A
N413        C439   1.347       .  A
N413        N415   1.317       .  A
N413       Co429   2.114       .  S
N414        C428   1.348       .  A
N415        N443   1.324       .  A
N415       Co433   2.067       .  S
H416        C439   1.078       .  S
H417        C434   1.076       .  S
N419       Co433   2.049   1_556  S
N420        N432   1.319       .  A
N420        N436   1.323       .  A
N420       Co429   2.080       .  S
C421        C435   1.453       .  S
C421        N425   1.359       .  A
C422        C441   1.455       .  S
C422        H426   1.081       .  S
N423        C434   1.331       .  A
N423       Co433   2.060   1_556  S
C427        C439   1.472       .  S
C427        C853   1.485       .  S
C427        N443   1.346       .  A
Co429      Cl440   2.419       .  S
N430        C441   1.351       .  A
Co433      Cl440   2.478       .  S
C441       C1153   1.474       .  S
C444        C481   1.464       .  S
C444       C1276   1.493       .  S
C444        N462   1.356       .  A
N445        N462   1.330       .  A
N445        N467   1.316       .  A
N445       Co482   2.102       .  S
C446        C484   1.456       .  S
C446        N471   1.340       .  A
C446        H491   1.081       .  S
H447        C488   1.079       .  S
C448        C452   1.469       .  S
C448        N472   1.351       .  A
C448        H477   1.081       .  S
Co449       N467   2.078   1_565  S
Co449       N457   2.081       .  S
Co449       N489   2.074   1_565  S
Co449       N465   2.077       .  S
Co449      Cl493   2.484       .  S
N450        C488   1.340       .  A
N450        N457   1.318       .  A
N450       Co451   2.076       .  S
Co451       N454   2.071       .  S
Co451       N471   2.078       .  S
Co451       N458   2.068       .  S
Co451      Cl493   2.403       .  S
C452        N490   1.342       .  A
N453        N460   1.322       .  A
N453        N483   1.329       .  A
N453       Co486   2.089   1_545  S
N454        N472   1.320       .  A
N454        N490   1.316       .  A
N455        C484   1.347       .  A
N455        N465   1.324       .  A
H456        C481   1.080       .  S
N457        N478   1.322       .  A
N458        N476   1.319       .  A
N458        N463   1.314       .  A
C459        C487   1.467       .  S
C459        C656   1.459       .  S
C459        N463   1.342       .  A
N460        C475   1.330       .  A
N460       Co482   2.079       .  S
C461        C464   1.452       .  S
C461        N489   1.340       .  A
C461        H495   1.081       .  S
C464       C1117   1.479       .  S
C464        N485   1.352       .  A
N465        N471   1.317       .  A
N466        C492   1.329       .  A
N466        N468   1.320       .  A
N466       Co482   2.074       .  S
N467        C481   1.338       .  A
N468        N496   1.332       .  A
N468       Co486   2.097   1_545  S
H469        C492   1.081       .  S
H470        C487   1.081       .  S
N472       Co486   2.100       .  S
N473        N485   1.328       .  A
N473        N489   1.319       .  A
N473       Co482   2.102       .  S
C474        C488   1.452       .  S
C474       C1213   1.468       .  S
C474        N478   1.349       .  A
C475        C494   1.455       .  S
C475        H479   1.082       .  S
N476        C487   1.349       .  A
N476       Co486   2.091       .  S
C480        C492   1.452       .  S
C480        C547   1.471       .  S
C480        N496   1.356       .  A
Co482      Cl493   2.405   1_545  S
N483        C494   1.352       .  A
C484       C1000   1.469       .  S
Co486      Cl493   2.502       .  S
C497        C534   1.455       .  S
C497       C1132   1.467       .  S
C497        N515   1.348       .  A
N498        N515   1.324       .  A
N498        N520   1.319       .  A
N498       Co535   2.083       .  S
C499        C537   1.457       .  S
C499        N524   1.341       .  A
C499        H544   1.081       .  S
H500        C541   1.081       .  S
C501        C505   1.467       .  S
C501        N525   1.348       .  A
C501        H530   1.081       .  S
Co502       N520   2.079   1_556  S
Co502       N510   2.076       .  S
Co502       N542   2.066   1_556  S
Co502       N518   2.087       .  S
Co502      Cl546   2.477       .  S
N503        C541   1.340       .  A
N503        N510   1.316       .  A
N503       Co504   2.076       .  S
Co504       N507   2.076       .  S
Co504       N524   2.088       .  S
Co504       N511   2.062       .  S
Co504      Cl546   2.407       .  S
C505        C623   1.462       .  S
C505        N543   1.343       .  A
N506        N513   1.320       .  A
N506        N536   1.332       .  A
N506       Co539   2.102       .  S
N507        N525   1.321       .  A
N507        N543   1.317       .  A
N508        C537   1.351       .  A
N508        N518   1.327       .  A
H509        C534   1.081       .  S
N510        N531   1.324       .  A
N511        N529   1.320       .  A
N511        N516   1.314       .  A
C512        C540   1.470       .  S
C512        N516   1.340       .  A
N513        C528   1.328       .  A
N513       Co535   2.067       .  S
C514        C517   1.461       .  S
C514        N542   1.335       .  A
C514        H548   1.080       .  S
C517        C793   1.480       .  S
C517        N538   1.350       .  A
N518        N524   1.318       .  A
N519        C545   1.331       .  A
N519        N521   1.321       .  A
N519       Co535   2.078       .  S
N520        C534   1.339       .  A
N521        N549   1.330       .  A
N521       Co539   2.095       .  S
H522        C545   1.082       .  S
H523        C540   1.081       .  S
N525       Co539   2.095   1_556  S
N526        N538   1.323       .  A
N526        N542   1.316       .  A
N526       Co535   2.074       .  S
C527        C541   1.457       .  S
C527       C1069   1.473       .  S
C527        N531   1.348       .  A
C528        C547   1.451       .  S
C528        H532   1.081       .  S
N529        C540   1.351       .  A
N529       Co539   2.101   1_556  S
C533        C545   1.453       .  S
C533        N549   1.354       .  A
Co535      Cl546   2.408   1_554  S
N536        C547   1.357       .  A
C537        C748   1.479       .  S
Co539      Cl546   2.499   1_554  S
C550        C587   1.452       .  S
C550       C1357   1.478       .  S
C550        N568   1.351       .  A
N551        N568   1.329       .  A
N551        N573   1.319       .  A
N551       Co588   2.100       .  S
C552        C590   1.455       .  S
C552        N577   1.340       .  A
C552        H597   1.081       .  S
H553        C594   1.081       .  S
C554        C558   1.466       .  S
C554        N578   1.350       .  A
C554        H583   1.081       .  S
Co555       N573   2.077       .  S
Co555       N563   2.073   1_455  S
Co555       N595   2.068       .  S
Co555       N571   2.094   1_455  S
Co555      Cl599   2.479       .  S
N556        C594   1.340       .  A
N556        N563   1.317       .  A
N556       Co557   2.071       .  S
Co557       N560   2.080       .  S
Co557       N577   2.083       .  S
Co557       N564   2.064       .  S
Co557      Cl599   2.410   1_655  S
C558        C633   1.466       .  S
C558        N596   1.344       .  A
N559        N566   1.320       .  A
N559        N589   1.332       .  A
N559       Co592   2.102       .  S
N560        N578   1.321       .  A
N560        N596   1.316       .  A
N561        C590   1.353       .  A
N561        N571   1.326       .  A
H562        C587   1.081       .  S
N563        N584   1.322       .  A
N564        N582   1.319       .  A
N564        N569   1.316       .  A
C565        C593   1.469       .  S
C565        C696   1.465       .  S
C565        N569   1.341       .  A
N566        C581   1.330       .  A
N566       Co588   2.068       .  S
C567        C570   1.461       .  S
C567        N595   1.335       .  A
C567        H601   1.079       .  S
C570        C880   1.492       .  S
C570        N591   1.358       .  A
N571        N577   1.319       .  A
N572        C598   1.332       .  A
N572        N574   1.323       .  A
N572       Co588   2.086       .  S
N573        C587   1.339       .  A
N574        N602   1.328       .  A
N574       Co592   2.088       .  S
H575        C598   1.082       .  S
H576        C593   1.081       .  S
N578       Co592   2.090   1_655  S
N579        N591   1.330       .  A
N579        N595   1.315       .  A
N579       Co588   2.104       .  S
C580        C594   1.453       .  S
C580       C1192   1.461       .  S
C580        N584   1.345       .  A
C581        C600   1.448       .  S
C581        H585   1.082       .  S
N582        C593   1.350       .  A
N582       Co592   2.099   1_655  S
C586        C598   1.458       .  S
C586        N602   1.351       .  A
Co588      Cl599   2.411       .  S
N589        C600   1.357       .  A
C590        C712   1.477       .  S
Co592      Cl599   2.497       .  S
C603        C640   1.466       .  S
C603        N621   1.343       .  A
N604        N621   1.315       .  A
N604        N626   1.321       .  A
N604       Co641   2.079       .  S
C605        C643   1.449       .  S
C605        N630   1.327       .  A
C605        H650   1.081       .  S
H606        C647   1.082       .  S
C607        C611   1.448       .  S
C607        N631   1.335       .  A
C607        H636   1.081       .  S
Co608       N626   2.093   1_565  S
Co608       N616   2.100       .  S
Co608       N648   2.092   1_565  S
Co608       N624   2.101       .  S
Co608      Cl652   2.501       .  S
N609        C647   1.328       .  A
N609        N616   1.319       .  A
N609       Co610   2.064       .  S
Co610       N613   2.079       .  S
Co610       N630   2.061       .  S
Co610       N617   2.081       .  S
Co610      Cl652   2.399       .  S
C611       C1204   1.461       .  S
C611        N649   1.346       .  A
N612        N619   1.318       .  A
N612        N642   1.325       .  A
N612       Co645   2.083   1_545  S
N613        N631   1.317       .  A
N613        N649   1.325       .  A
N614        C643   1.357       .  A
N614        N624   1.331       .  A
H615        C640   1.081       .  S
N616        N637   1.332       .  A
N617        N635   1.315       .  A
N617        N622   1.325       .  A
C618        C646   1.463       .  S
C618        C952   1.481       .  S
C618        N622   1.350       .  A
N619        C634   1.343       .  A
N619       Co641   2.091       .  S
C620        C623   1.463       .  S
C620        N648   1.347       .  A
C620        H654   1.082       .  S
C623        N644   1.346       .  A
N624        N630   1.319       .  A
N625        C651   1.344       .  A
N625        N627   1.318       .  A
N625       Co641   2.099       .  S
N626        C640   1.351       .  A
N627        N655   1.325       .  A
N627       Co645   2.079   1_545  S
H628        C651   1.082       .  S
H629        C646   1.076       .  S
N631       Co645   2.059       .  S
N632        N644   1.318       .  A
N632        N648   1.322       .  A
N632       Co641   2.083       .  S
C633        C647   1.448       .  S
C633        N637   1.357       .  A
C634        C653   1.461       .  S
C634        H638   1.081       .  S
N635        C646   1.335       .  A
N635       Co645   2.075       .  S
C639        C651   1.464       .  S
C639       C1060   1.482       .  S
C639        N655   1.350       .  A
Co641      Cl652   2.408   1_545  S
N642        C653   1.348       .  A
C643        C686   1.468       .  S
Co645      Cl652   2.484       .  S
C653       C1252   1.481       .  S
C656        C693   1.465       .  S
C656        N674   1.344       .  A
N657        N674   1.315       .  A
N657        N679   1.319       .  A
N657       Co694   2.074       .  S
C658        C696   1.455       .  S
C658        N683   1.333       .  A
C658        H703   1.082       .  S
H659        C700   1.081       .  S
C660        C664   1.458       .  S
C660        N684   1.334       .  A
C660        H689   1.079       .  S
Co661       N679   2.082   1_556  S
Co661       N669   2.097       .  S
Co661       N701   2.102   1_556  S
Co661       N677   2.084       .  S
Co661      Cl705   2.497   1_556  S
N662        C700   1.329       .  A
N662        N669   1.321       .  A
N662       Co663   2.073       .  S
Co663       N666   2.101       .  S
Co663       N683   2.086       .  S
Co663       N670   2.088       .  S
Co663      Cl705   2.416   1_556  S
C664        C961   1.486       .  S
C664        N702   1.357       .  A
N665        N672   1.319       .  A
N665        N695   1.326       .  A
N665       Co698   2.102       .  S
N666        N684   1.315       .  A
N666        N702   1.329       .  A
N667        C696   1.352       .  A
N667        N677   1.329       .  A
H668        C693   1.081       .  S
N669        N690   1.330       .  A
N670        N688   1.320       .  A
N670        N675   1.326       .  A
C671        C699   1.461       .  S
C671        C724   1.478       .  S
C671        N675   1.348       .  A
N672        C687   1.341       .  A
N672       Co694   2.076       .  S
C673        C676   1.470       .  S
C673        N701   1.352       .  A
C673        H707   1.081       .  S
C676        N697   1.341       .  A
N677        N683   1.321       .  A
N678        C704   1.341       .  A
N678        N680   1.316       .  A
N678       Co694   2.080       .  S
N679        C693   1.349       .  A
N680        N708   1.321       .  A
N680       Co698   2.066       .  S
H681        C704   1.081       .  S
H682        C699   1.081       .  S
N684       Co698   2.065   1_556  S
N685        N697   1.315       .  A
N685        N701   1.320       .  A
N685       Co694   2.067       .  S
C686        C700   1.454       .  S
C686        N690   1.354       .  A
C687        C706   1.451       .  S
C687        H691   1.081       .  S
N688        C699   1.344       .  A
N688       Co698   2.095   1_556  S
C692        C704   1.458       .  S
C692        C772   1.464       .  S
C692        N708   1.345       .  A
Co694      Cl705   2.409       .  S
N695        C706   1.353       .  A
Co698      Cl705   2.473       .  S
C706       C1012   1.476       .  S
C709        C710   1.407       .  A
C709        C714   1.411       .  A
C710        C711   1.402       .  A
C710        H715   1.085       .  S
C711        C712   1.408       .  A
C711        C718   1.443       .  S
C712        C713   1.403       .  A
C713        C714   1.402       .  A
C713        H716   1.085       .  S
C714        C717   1.440       .  S
C717        N719   1.157       .  T
C718        N720   1.157       .  T
C721        C722   1.406       .  A
C721        C726   1.413       .  A
C722        C723   1.403       .  A
C722        H727   1.085       .  S
C723        C724   1.408       .  A
C723        C730   1.443       .  S
C724        C725   1.403       .  A
C725        C726   1.403       .  A
C725        H728   1.084       .  S
C726        C729   1.440       .  S
C729        N731   1.156       .  T
C730        N732   1.157       .  T
C733        C734   1.405       .  A
C733        C738   1.407       .  A
C734        C735   1.405       .  A
C734        H739   1.085       .  S
C735        C736   1.412       .  A
C735        C742   1.441       .  S
C736        C737   1.406       .  A
C737        C738   1.403       .  A
C737        H740   1.085       .  S
C738        C741   1.443       .  S
C741        N743   1.157       .  T
C742        N744   1.156       .  T
C745        C746   1.403       .  A
C745        C750   1.414       .  A
C746        C747   1.401       .  A
C746        H751   1.083       .  S
C747        C748   1.413       .  A
C747        C754   1.444       .  S
C748        C749   1.401       .  A
C749        C750   1.404       .  A
C749        H752   1.085       .  S
C750        C753   1.444       .  S
C753        N755   1.157       .  T
C754        N756   1.157       .  T
C757        C758   1.401       .  A
C757        C762   1.406       .  A
C758        C759   1.400       .  A
C758        H763   1.085       .  S
C759        C760   1.410       .  A
C759        C766   1.438       .  S
C760        C761   1.404       .  A
C761        C762   1.399       .  A
C761        H764   1.084       .  S
C762        C765   1.443       .  S
C765        N767   1.157       .  T
C766        N768   1.156       .  T
C769        C770   1.399       .  A
C769        C774   1.412       .  A
C770        C771   1.396       .  A
C770        H775   1.079       .  S
C771        C772   1.409       .  A
C771        C778   1.444       .  S
C772        C773   1.398       .  A
C773        C774   1.398       .  A
C773        H776   1.085       .  S
C774        C777   1.444       .  S
C777        N779   1.157       .  T
C778        N780   1.157       .  T
C781        C782   1.403       .  A
C781        C786   1.409       .  A
C782        C783   1.406       .  A
C782        H787   1.085       .  S
C783        C784   1.417       .  A
C783        C790   1.443       .  S
C784        C785   1.403       .  A
C785        C786   1.397       .  A
C785        H788   1.070       .  S
C786        C789   1.444       .  S
C789        N791   1.157       .  T
C790        N792   1.157       .  T
C793        C794   1.398       .  A
C793        C798   1.409       .  A
C794        C795   1.395       .  A
C794        H799   1.083       .  S
C795        C796   1.424       .  A
C795        C802   1.441       .  S
C796        C797   1.412       .  A
C797        C798   1.400       .  A
C797        H800   1.072       .  S
C798        C801   1.444       .  S
C801        N803   1.157       .  T
C802        N804   1.157       .  T
C805        C806   1.400       .  A
C805        C810   1.413       .  A
C806        C807   1.396   1_556  A
C806        H811   1.085       .  S
C807        C808   1.420       .  A
C807        C814   1.437       .  S
C808        C809   1.416       .  A
C809        C810   1.413   1_554  A
C809        H812   1.081       .  S
C810        C813   1.441       .  S
C813        N815   1.157       .  T
C814        N816   1.155       .  T
C817        C818   1.401       .  A
C817        C822   1.408       .  A
C818        C819   1.400       .  A
C818        H823   1.085       .  S
C819        C820   1.411       .  A
C819        C826   1.439       .  S
C820        C821   1.404       .  A
C821        C822   1.402       .  A
C821        H824   1.085       .  S
C822        C825   1.443       .  S
C825        N827   1.157       .  T
C826        N828   1.156       .  T
C829        C830   1.406       .  A
C829        C834   1.417       .  A
C830        C831   1.400       .  A
C830        H835   1.085       .  S
C831        C832   1.406       .  A
C831        C838   1.443       .  S
C832        C833   1.400       .  A
C833        C834   1.399       .  A
C833        H836   1.086       .  S
C834        C837   1.443       .  S
C837        N839   1.158       .  T
C838        N840   1.157       .  T
C841        C842   1.406       .  A
C841        C846   1.407       .  A
C842        C843   1.405       .  A
C842        H847   1.084       .  S
C843        C844   1.409       .  A
C843        C850   1.436       .  S
C844        C845   1.407       .  A
C845        C846   1.392       .  A
C845        H848   1.068       .  S
C846        C849   1.445       .  S
C849        N851   1.157       .  T
C850        N852   1.155       .  T
C853        C854   1.406       .  A
C853        C858   1.405       .  A
C854        C855   1.412       .  A
C854        H859   1.084       .  S
C855        C856   1.422       .  A
C855        C862   1.443       .  S
C856        C857   1.399       .  A
C857        C858   1.385       .  A
C857        H860   1.076       .  S
C858        C861   1.434       .  S
C861        N863   1.155   1_554  T
C862        N864   1.157       .  T
C865        C866   1.397       .  A
C865        C870   1.415       .  A
C866        C867   1.393   1_455  A
C866        H871   1.085       .  S
C867        C868   1.415       .  A
C867        C874   1.436       .  S
C868        C869   1.410       .  A
C869        C870   1.417   1_655  A
C869        H872   1.081       .  S
C870        C873   1.441       .  S
C873        N875   1.157       .  T
C874        N876   1.154       .  T
C877        C878   1.401       .  A
C877        C882   1.422       .  A
C878        C879   1.390       .  A
C878        H883   1.075       .  S
C879        C880   1.410       .  A
C879        C886   1.434       .  S
C880        C881   1.404       .  A
C881        C882   1.412       .  A
C881        H884   1.084       .  S
C882        C885   1.441       .  S
C885        N887   1.157       .  T
C886        N888   1.154       .  T
C889        C890   1.392       .  A
C889        C894   1.413       .  A
C890        C891   1.392       .  A
C890        H895   1.086       .  S
C891        C892   1.419       .  A
C891        C898   1.442       .  S
C892        C893   1.405       .  A
C893        C894   1.403       .  A
C893        H896   1.085       .  S
C894        C897   1.443       .  S
C897        N899   1.157       .  T
C898        N900   1.156       .  T
C901        C902   1.409       .  A
C901        C906   1.414       .  A
C902        C903   1.404       .  A
C902        H907   1.083       .  S
C903        C904   1.408       .  A
C903        C910   1.442       .  S
C904        C905   1.399       .  A
C905        C906   1.386       .  A
C905        H908   1.087       .  S
C906        C909   1.443       .  S
C909        N911   1.157       .  T
C910        N912   1.157       .  T
C913        C914   1.404       .  A
C913        C918   1.414       .  A
C914        C915   1.400       .  A
C914        H919   1.081       .  S
C915        C916   1.413       .  A
C915        C922   1.445       .  S
C916        C917   1.399       .  A
C917        C918   1.400       .  A
C917        H920   1.085       .  S
C918        C921   1.444       .  S
C921        N923   1.157       .  T
C922        N924   1.157       .  T
C925        C926   1.413       .  A
C925        C930   1.418       .  A
C926        C927   1.410   1_556  A
C926        H931   1.073       .  S
C927        C928   1.408       .  A
C927        C934   1.442       .  S
C928        C929   1.400       .  A
C929        C930   1.395   1_554  A
C929        H932   1.085       .  S
C930        C933   1.440       .  S
C933        N935   1.156       .  T
C934        N936   1.157       .  T
C937        C938   1.402       .  A
C937        C942   1.423       .  A
C938        C939   1.397       .  A
C938        H943   1.080       .  S
C939        C940   1.410   1_455  A
C939        C946   1.440   1_455  S
C940        C941   1.407       .  A
C941        C942   1.420   1_655  A
C941        H944   1.084       .  S
C942        C945   1.439       .  S
C945        N947   1.157       .  T
C946        N948   1.155       .  T
C949        C950   1.407       .  A
C949        C954   1.412       .  A
C950        C951   1.400       .  A
C950        H955   1.085       .  S
C951        C952   1.408       .  A
C951        C958   1.444       .  S
C952        C953   1.407       .  A
C953        C954   1.405       .  A
C953        H956   1.085       .  S
C954        C957   1.443       .  S
C957        N959   1.157       .  T
C958        N960   1.157       .  T
C961        C962   1.400       .  A
C961        C966   1.411       .  A
C962        C963   1.406       .  A
C962        H967   1.084       .  S
C963        C964   1.422       .  A
C963        C970   1.443       .  S
C964        C965   1.397       .  A
C965        C966   1.393       .  A
C965        H968   1.080       .  S
C966        C969   1.434       .  S
C969        N971   1.155   1_556  T
C970        N972   1.157       .  T
C973        C974   1.391       .  A
C973        C978   1.419       .  A
C974        C975   1.389       .  A
C974        H979   1.083       .  S
C975        C976   1.406       .  A
C975        C982   1.418       .  S
C976        C977   1.403       .  A
C977        C978   1.409       .  A
C977        H980   1.084       .  S
C978        C981   1.442       .  S
C981        N983   1.157       .  T
C982        N984   1.148   1_565  T
C985        C986   1.402       .  A
C985        C990   1.415       .  A
C986        C987   1.398       .  A
C986        H991   1.084       .  S
C987        C988   1.413       .  A
C987        C994   1.444       .  S
C988        C989   1.398       .  A
C989        C990   1.397       .  A
C989        H992   1.085       .  S
C990        C993   1.445       .  S
C993        N995   1.157       .  T
C994        N996   1.157       .  T
C997        C998   1.402       .  A
C997       C1002   1.413       .  A
C998        C999   1.399       .  A
C998       H1003   1.081       .  S
C999       C1000   1.411       .  A
C999       C1006   1.444       .  S
C1000      C1001   1.399       .  A
C1001      C1002   1.399       .  A
C1001      H1004   1.085       .  S
C1002      C1005   1.443       .  S
C1005      N1007   1.157       .  T
C1006      N1008   1.157       .  T
C1009      C1010   1.404       .  A
C1009      C1014   1.410       .  A
C1010      C1011   1.400       .  A
C1010      H1015   1.084       .  S
C1011      C1012   1.406       .  A
C1011      C1018   1.443       .  S
C1012      C1013   1.406       .  A
C1013      C1014   1.404       .  A
C1013      H1016   1.085       .  S
C1014      C1017   1.443       .  S
C1017      N1019   1.157       .  T
C1018      N1020   1.157       .  T
C1021      C1022   1.403       .  A
C1021      C1026   1.405       .  A
C1022      C1023   1.401       .  A
C1022      H1027   1.084       .  S
C1023      C1024   1.408       .  A
C1023      C1030   1.443       .  S
C1024      C1025   1.406       .  A
C1025      C1026   1.403       .  A
C1025      H1028   1.085       .  S
C1026      C1029   1.439       .  S
C1029      N1031   1.156       .  T
C1030      N1032   1.157       .  T
C1033      C1034   1.401       .  A
C1033      C1038   1.412       .  A
C1034      C1035   1.398       .  A
C1034      H1039   1.079       .  S
C1035      C1036   1.409       .  A
C1035      C1042   1.444       .  S
C1036      C1037   1.399       .  A
C1037      C1038   1.399       .  A
C1037      H1040   1.085       .  S
C1038      C1041   1.443       .  S
C1041      N1043   1.157       .  T
C1042      N1044   1.157       .  T
C1045      C1046   1.400       .  A
C1045      C1050   1.412       .  A
C1046      C1047   1.397   1_554  A
C1046      H1051   1.086       .  S
C1047      C1048   1.418       .  A
C1047      C1054   1.443       .  S
C1048      C1049   1.413       .  A
C1049      C1050   1.417   1_556  A
C1049      H1052   1.083       .  S
C1050      C1053   1.440       .  S
C1053      N1055   1.157       .  T
C1054      N1056   1.157       .  T
C1057      C1058   1.398       .  A
C1057      C1062   1.421       .  A
C1058      C1059   1.385       .  A
C1058      H1063   1.072       .  S
C1059      C1060   1.405       .  A
C1059      C1066   1.430       .  S
C1060      C1061   1.403       .  A
C1061      C1062   1.408       .  A
C1061      H1064   1.084       .  S
C1062      C1065   1.442       .  S
C1065      N1067   1.157       .  T
C1066      N1068   1.153   1_545  T
C1069      C1070   1.402       .  A
C1069      C1074   1.405       .  A
C1070      C1071   1.399       .  A
C1070      H1075   1.085       .  S
C1071      C1072   1.416       .  A
C1071      C1078   1.442       .  S
C1072      C1073   1.408       .  A
C1073      C1074   1.398       .  A
C1073      H1076   1.085       .  S
C1074      C1077   1.444       .  S
C1077      N1079   1.157       .  T
C1078      N1080   1.157       .  T
C1081      C1082   1.402       .  A
C1081      C1086   1.416       .  A
C1082      C1083   1.401       .  A
C1082      H1087   1.085       .  S
C1083      C1084   1.416       .  A
C1083      C1090   1.445       .  S
C1084      C1085   1.403       .  A
C1085      C1086   1.402       .  A
C1085      H1088   1.085       .  S
C1086      C1089   1.443       .  S
C1089      N1091   1.157       .  T
C1090      N1092   1.157       .  T
C1093      C1094   1.399       .  A
C1093      C1098   1.422       .  A
C1094      C1095   1.384       .  A
C1094      H1099   1.068       .  S
C1095      C1096   1.407       .  A
C1095      C1102   1.436       .  S
C1096      C1097   1.401       .  A
C1097      C1098   1.409       .  A
C1097      H1100   1.084       .  S
C1098      C1101   1.441       .  S
C1101      N1103   1.157       .  T
C1102      N1104   1.155   1_556  T
C1105      C1106   1.414       .  A
C1105      C1110   1.421       .  A
C1106      C1107   1.420   1_545  A
C1106      H1111   1.080       .  S
C1107      C1108   1.415       .  A
C1107      C1114   1.441       .  S
C1108      C1109   1.399       .  A
C1109      C1110   1.397   1_565  A
C1109      H1112   1.085       .  S
C1110      C1113   1.442       .  S
C1113      N1115   1.157       .  T
C1114      N1116   1.157       .  T
C1117      C1118   1.399       .  A
C1117      C1122   1.412       .  A
C1118      C1119   1.399       .  A
C1118      H1123   1.085       .  S
C1119      C1120   1.417       .  A
C1119      C1126   1.443       .  S
C1120      C1121   1.406       .  A
C1121      C1122   1.405       .  A
C1121      H1124   1.083       .  S
C1122      C1125   1.443       .  S
C1125      N1127   1.157       .  T
C1126      N1128   1.157       .  T
C1129      C1130   1.402       .  A
C1129      C1134   1.413       .  A
C1130      C1131   1.399       .  A
C1130      H1135   1.084       .  S
C1131      C1132   1.409       .  A
C1131      C1138   1.442       .  S
C1132      C1133   1.397       .  A
C1133      C1134   1.398       .  A
C1133      H1136   1.085       .  S
C1134      C1137   1.443       .  S
C1137      N1139   1.157       .  T
C1138      N1140   1.156   1_554  T
C1141      C1142   1.404       .  A
C1141      C1146   1.405       .  A
C1142      C1143   1.401       .  A
C1142      H1147   1.085       .  S
C1143      C1144   1.407       .  A
C1143      C1150   1.439       .  S
C1144      C1145   1.402       .  A
C1145      C1146   1.398       .  A
C1145      H1148   1.084       .  S
C1146      C1149   1.443       .  S
C1149      N1151   1.157       .  T
C1150      N1152   1.156       .  T
C1153      C1154   1.399       .  A
C1153      C1158   1.411       .  A
C1154      C1155   1.401       .  A
C1154      H1159   1.085       .  S
C1155      C1156   1.412       .  A
C1155      C1162   1.440       .  S
C1156      C1157   1.402       .  A
C1157      C1158   1.402       .  A
C1157      H1160   1.079       .  S
C1158      C1161   1.444       .  S
C1161      N1163   1.157       .  T
C1162      N1164   1.156       .  T
C1165      C1166   1.408       .  A
C1165      C1170   1.416       .  A
C1166      C1167   1.415   1_545  A
C1166      H1171   1.084       .  S
C1167      C1168   1.416       .  A
C1167      C1174   1.440       .  S
C1168      C1169   1.403       .  A
C1169      C1170   1.395   1_565  A
C1169      H1172   1.086       .  S
C1170      C1173   1.445       .  S
C1173      N1175   1.157       .  T
C1174      N1176   1.157       .  T
C1177      C1178   1.413       .  A
C1177      C1182   1.419       .  A
C1178      C1179   1.413   1_556  A
C1178      H1183   1.078       .  S
C1179      C1180   1.410       .  A
C1179      C1186   1.442       .  S
C1180      C1181   1.401       .  A
C1181      C1182   1.395   1_554  A
C1181      H1184   1.085       .  S
C1182      C1185   1.446       .  S
C1185      N1187   1.158       .  T
C1186      N1188   1.157       .  T
C1189      C1190   1.403       .  A
C1189      C1194   1.413       .  A
C1190      C1191   1.395       .  A
C1190      H1195   1.085       .  S
C1191      C1192   1.404       .  A
C1191      C1198   1.443       .  S
C1192      C1193   1.402       .  A
C1193      C1194   1.398       .  A
C1193      H1196   1.085       .  S
C1194      C1197   1.445       .  S
C1197      N1199   1.157       .  T
C1198      N1200   1.157       .  T
C1201      C1202   1.408       .  A
C1201      C1206   1.416       .  A
C1202      C1203   1.401       .  A
C1202      H1207   1.080       .  S
C1203      C1204   1.407       .  A
C1203      C1210   1.443       .  S
C1204      C1205   1.389       .  A
C1205      C1206   1.391       .  A
C1205      H1208   1.086       .  S
C1206      C1209   1.435       .  S
C1209      N1211   1.155       .  T
C1210      N1212   1.157       .  T
C1213      C1214   1.397       .  A
C1213      C1218   1.414       .  A
C1214      C1215   1.397       .  A
C1214      H1219   1.085       .  S
C1215      C1216   1.419       .  A
C1215      C1222   1.443       .  S
C1216      C1217   1.404       .  A
C1217      C1218   1.404       .  A
C1217      H1220   1.084       .  S
C1218      C1221   1.444       .  S
C1221      N1223   1.157       .  T
C1222      N1224   1.157       .  T
C1225      C1226   1.412       .  A
C1225      C1230   1.418       .  A
C1226      C1227   1.390       .  A
C1226      H1231   1.048       .  S
C1227      C1228   1.401       .  A
C1227      C1234   1.447       .  S
C1228      C1229   1.404       .  A
C1229      C1230   1.405       .  A
C1229      H1232   1.083       .  S
C1230      C1233   1.437       .  S
C1233      N1235   1.157       .  T
C1234      N1236   1.157       .  T
C1237      C1238   1.403       .  A
C1237      C1242   1.417       .  A
C1238      C1239   1.404       .  A
C1238      H1243   1.084       .  S
C1239      C1240   1.414       .  A
C1239      C1246   1.444       .  S
C1240      C1241   1.397       .  A
C1241      C1242   1.400       .  A
C1241      H1244   1.085       .  S
C1242      C1245   1.444       .  S
C1245      N1247   1.157       .  T
C1246      N1248   1.157   1_655  T
C1249      C1250   1.406       .  A
C1249      C1254   1.417       .  A
C1250      C1251   1.401       .  A
C1250      H1255   1.082       .  S
C1251      C1252   1.412       .  A
C1251      C1258   1.443       .  S
C1252      C1253   1.401       .  A
C1253      C1254   1.403       .  A
C1253      H1256   1.085       .  S
C1254      C1257   1.444       .  S
C1257      N1259   1.157       .  T
C1258      N1260   1.157       .  T
C1261      C1262   1.397       .  A
C1261      C1266   1.414       .  A
C1262      C1263   1.400       .  A
C1262      H1267   1.085       .  S
C1263      C1264   1.419       .  A
C1263      C1270   1.443       .  S
C1264      C1265   1.405       .  A
C1265      C1266   1.405       .  A
C1265      H1268   1.084       .  S
C1266      C1269   1.443       .  S
C1269      N1271   1.157       .  T
C1270      N1272   1.157       .  T
C1273      C1274   1.395       .  A
C1273      C1278   1.422       .  A
C1274      C1275   1.396       .  A
C1274      H1279   1.083       .  S
C1275      C1276   1.410       .  A
C1275      C1282   1.425   1_545  S
C1276      C1277   1.401       .  A
C1277      C1278   1.409       .  A
C1277      H1280   1.084       .  S
C1278      C1281   1.441       .  S
C1281      N1283   1.157       .  T
C1282      N1284   1.151       .  T
C1285      C1286   1.405       .  A
C1285      C1290   1.419       .  A
C1286      C1287   1.397       .  A
C1286      H1291   1.086       .  S
C1287      C1288   1.417   1_565  A
C1287      C1294   1.444   1_565  S
C1288      C1289   1.410       .  A
C1289      C1290   1.417   1_545  A
C1289      H1292   1.084       .  S
C1290      C1293   1.438       .  S
C1293      N1295   1.157       .  T
C1294      N1296   1.158       .  T
C1297      C1298   1.407       .  A
C1297      C1302   1.418       .  A
C1298      C1299   1.401       .  A
C1298      H1303   1.078       .  S
C1299      C1300   1.410       .  A
C1299      C1306   1.444       .  S
C1300      C1301   1.398       .  A
C1301      C1302   1.400       .  A
C1301      H1304   1.085       .  S
C1302      C1305   1.444       .  S
C1305      N1307   1.157       .  T
C1306      N1308   1.157       .  T
C1309      C1310   1.409       .  A
C1309      C1314   1.408       .  A
C1310      C1311   1.395       .  A
C1310      H1315   1.066       .  S
C1311      C1312   1.411       .  A
C1311      C1318   1.444       .  S
C1312      C1313   1.405       .  A
C1313      C1314   1.401       .  A
C1313      H1316   1.084       .  S
C1314      C1317   1.439       .  S
C1317      N1319   1.157       .  T
C1318      N1320   1.158       .  T
C1321      C1322   1.405       .  A
C1321      C1326   1.406       .  A
C1322      C1323   1.392       .  A
C1322      H1327   1.084       .  S
C1323      C1324   1.404       .  A
C1323      C1330   1.444       .  S
C1324      C1325   1.402       .  A
C1325      C1326   1.397       .  A
C1325      H1328   1.085       .  S
C1326      C1329   1.439       .  S
C1329      N1331   1.156       .  T
C1330      N1332   1.157       .  T
C1333      C1334   1.404       .  A
C1333      C1338   1.407       .  A
C1334      C1335   1.412       .  A
C1334      H1339   1.085       .  S
C1335      C1336   1.429       .  A
C1335      C1342   1.446       .  S
C1336      C1337   1.412       .  A
C1337      C1338   1.397       .  A
C1337      H1340   1.062       .  S
C1338      C1341   1.444       .  S
C1341      N1343   1.158       .  T
C1342      N1344   1.158       .  T
C1345      C1346   1.402       .  A
C1345      C1350   1.427       .  A
C1346      C1347   1.403       .  A
C1346      H1351   1.081       .  S
C1347      C1348   1.415   1_455  A
C1347      C1354   1.442   1_455  S
C1348      C1349   1.399       .  A
C1349      C1350   1.410   1_655  A
C1349      H1352   1.081       .  S
C1350      C1353   1.437       .  S
C1353      N1355   1.158       .  T
C1354      N1356   1.157       .  T
C1357      C1358   1.394       .  A
C1357      C1362   1.412       .  A
C1358      C1359   1.395       .  A
C1358      H1363   1.086       .  S
C1359      C1360   1.420       .  A
C1359      C1366   1.443       .  S
C1360      C1361   1.408       .  A
C1361      C1362   1.408       .  A
C1361      H1364   1.084       .  S
C1362      C1365   1.442       .  S
C1365      N1367   1.157       .  T
C1366      N1368   1.157       .  T
C1369      C1370   1.412       .  A
C1369      C1374   1.427       .  A
C1370      C1371   1.397       .  A
C1370      H1375   1.063       .  S
C1371      C1372   1.408       .  A
C1371      C1378   1.437       .  S
C1372      C1373   1.404       .  A
C1373      C1374   1.416       .  A
C1373      H1376   1.085       .  S
C1374      C1377   1.439       .  S
C1377      N1379   1.157       .  T
C1378      N1380   1.155       .  T
C1381      C1382   1.403       .  A
C1381      C1386   1.415       .  A
C1382      C1383   1.400       .  A
C1382      H1387   1.072       .  S
C1383      C1384   1.405       .  A
C1383      C1390   1.444       .  S
C1384      C1385   1.403       .  A
C1385      C1386   1.406       .  A
C1385      H1388   1.085       .  S
C1386      C1389   1.439       .  S
C1389      N1391   1.157       .  T
C1390      N1392   1.157       .  T
C1393      C1394   1.402       .  A
C1393      C1398   1.408       .  A
C1394      C1395   1.403       .  A
C1394      H1399   1.085       .  S
C1395      C1396   1.416       .  A
C1395      C1402   1.439       .  S
C1396      C1397   1.407       .  A
C1397      C1398   1.404       .  A
C1397      H1400   1.085       .  S
C1398      C1401   1.443       .  S
C1401      N1403   1.157       .  T
C1402      N1404   1.156       .  T
C1405      C1406   1.407       .  A
C1405      C1410   1.399       .  A
C1406      C1407   1.411   1_565  A
C1406      H1411   1.085       .  S
C1407      C1408   1.432       .  A
C1407      C1414   1.440       .  S
C1408      C1409   1.414       .  A
C1409      C1410   1.399   1_545  A
C1409      H1412   1.054       .  S
C1410      C1413   1.444       .  S
C1413      N1415   1.157       .  T
C1414      N1416   1.158       .  T
C1417      C1418   1.403       .  A
C1417      C1422   1.417       .  A
C1418      C1419   1.408   1_455  A
C1418      H1423   1.075       .  S
C1419      C1420   1.424       .  A
C1419      C1426   1.441       .  S
C1420      C1421   1.405       .  A
C1421      C1422   1.403   1_655  A
C1421      H1424   1.085       .  S
C1422      C1425   1.443       .  S
C1425      N1427   1.157       .  T
C1426      N1428   1.158       .  T
