geometry optimzed in LAMMPS
_audit_creation_date              2020-11-30 
_audit_creation_method            'lammps2cif' 
_symmetry_space_group_name_H-M    'P1' 
_symmetry_Int_Tables_number       1 
_symmetry_cell_setting            triclinic 
loop_ 
_symmetry_equiv_pos_as_xyz 
  x,y,z 
_cell_length_a                    36.24806967 
_cell_length_b                    36.1903470827325 
_cell_length_c                    36.22432688970856 
_cell_angle_alpha                 90.13467182847828 
_cell_angle_beta                  90.00636547773416 
_cell_angle_gamma                 89.95130050514418 
loop_ 
_atom_site_label 
_atom_site_type_symbol 
_atom_site_fract_x 
_atom_site_fract_y 
_atom_site_fract_z 
_atom_site_charge 
C1          C  0.84561109  0.84047374  0.80316467     0.82100
N2          N  0.81510757  0.85630179  0.81834600    -0.76200
C3          C  0.80037190  0.84305866  0.85027133     0.84500
N4          N  0.81650921  0.81340051  0.86671113    -0.76200
C5          C  0.84713338  0.79740485  0.85203130     0.84600
N6          N  0.86129563  0.81108331  0.82020838    -0.77900
C7          C  0.82787003  0.55121089  0.27194116     0.82100
N8          N  0.84454214  0.58074618  0.28797421    -0.76200
C9          C  0.83049253  0.59639262  0.31902150     0.84500
N10         N  0.79920817  0.58216918  0.33375649    -0.76200
C11         C  0.78218032  0.55269605  0.31808112     0.84600
N12         N  0.79657444  0.53732270  0.28706661    -0.77900
Zn13       Zn  0.92232572  0.45957592  0.89047192     1.49700
Zn14       Zn  0.96717248  0.48336299  0.96185044     1.49400
Zn15       Zn  0.91908215  0.40853393  0.96188991     1.49100
Zn16       Zn  0.99385897  0.41361780  0.91536936     1.49500
O17         O  0.95062711  0.44115162  0.93248904    -1.82300
O18         O  0.91942963  0.51503574  0.89013454    -0.72900
O19         O  0.94594495  0.48079518  0.01288515    -0.72700
O20         O  0.86851541  0.40281909  0.93904229    -0.72200
O21         O  0.95032224  0.53177957  0.94014267    -0.72900
O22         O  0.87028610  0.44064715  0.89106462    -0.72500
O23         O  0.91055838  0.43059853  0.01223315    -0.73100
O24         O  0.99444769  0.36173552  0.93597506    -0.72500
O25         O  0.02247807  0.48545887  0.96526902    -0.73200
O26         O  0.94233918  0.35783754  0.96786132    -0.72600
O27         O  0.04141846  0.43832224  0.93101024    -0.73100
O28         O  0.99355326  0.41015771  0.85994022    -0.73000
O29         O  0.94485042  0.44299048  0.84285829    -0.72800
C30         C  0.93144478  0.54006489  0.91172114     0.79000
C31         C  0.92318576  0.45911715  0.02853110     0.79500
C32         C  0.85287372  0.41808767  0.91152004     0.78400
C33         C  0.97228319  0.34341993  0.95617536     0.78800
C34         C  0.04841015  0.46631929  0.95119905     0.80000
C35         C  0.97274976  0.42323463  0.83480145     0.79000
C36         C  0.54792913  0.29588649  0.84673410     0.82100
N37         N  0.53175148  0.31070595  0.81628189    -0.76200
C38         C  0.54664091  0.34076395  0.79940789     0.84500
N39         N  0.57819651  0.35578798  0.81311982    -0.76200
C40         C  0.59481086  0.34106878  0.84331987     0.84600
N41         N  0.57956072  0.31111278  0.85982002    -0.77900
Zn42       Zn  0.49103495  0.97329631  0.96880688     1.49700
Zn43       Zn  0.41604172  0.97724536  0.92211406     1.49400
Zn44       Zn  0.46355581  0.90248095  0.92410250     1.49100
Zn45       Zn  0.41962646  0.92883091  0.99596670     1.49500
O46         O  0.44756065  0.94550621  0.95278982    -1.82300
O47         O  0.48950563  0.02536448  0.94907813    -0.72900
O48         O  0.40785608  0.95461834  0.87209907    -0.72700
O49         O  0.51913193  0.90017160  0.91982102    -0.72200
O50         O  0.43863614  0.02769182  0.91489824    -0.72900
O51         O  0.53848562  0.94923607  0.95100953    -0.72500
O52         O  0.44175087  0.90363183  0.87306630    -0.73100
O53         O  0.41518971  0.87311964  0.99675963    -0.72500
O54         O  0.36561787  0.98402276  0.94484697    -0.73200
O55         O  0.44564466  0.85505511  0.94686338    -0.72600
O56         O  0.36776857  0.94882819  0.99482051    -0.73100
O57         O  0.44325549  0.94671550  0.04350244    -0.73000
O58         O  0.49265668  0.97726428  0.02430426    -0.72800
C59         C  0.46752785  0.04287037  0.92795659     0.79000
C60         C  0.41967721  0.92538167  0.85650150     0.79500
C61         C  0.54527631  0.92045641  0.93179130     0.78400
C62         C  0.42638744  0.84754931  0.97524528     0.78800
C63         C  0.35024771  0.97042536  0.97334760     0.80000
C64         C  0.47198239  0.96586295  0.05033080     0.79000
C65         C  0.09505865  0.04813094  0.05231487     0.82100
N66         N  0.07987789  0.03423980  0.08361974    -0.76200
C67         C  0.04803006  0.04840363  0.09753085     0.84500
N68         N  0.03192431  0.07744138  0.08000332    -0.76200
C69         C  0.04687736  0.09181482  0.04872897     0.84600
N70         N  0.07843482  0.07689742  0.03499058    -0.77900
C71         C  0.29000209  0.84198569  0.55586399     0.82100
N72         N  0.30904370  0.81277608  0.54213976    -0.76200
C73         C  0.34027636  0.80071303  0.55869696     0.84500
N74         N  0.35244549  0.81802850  0.58958082    -0.76200
C75         C  0.33392151  0.84738783  0.60376914     0.84600
N76         N  0.30252109  0.85910625  0.58692785    -0.77900
Zn77       Zn  0.95606851  0.89056476  0.47217902     1.49700
Zn78       Zn  0.91110812  0.96647616  0.48024582     1.49400
Zn79       Zn  0.98539387  0.96278725  0.43200784     1.49100
Zn80       Zn  0.91371646  0.92470456  0.40206096     1.49500
O81         O  0.94133319  0.93609638  0.44684503    -1.82300
O82         O  0.93762219  0.88993988  0.52483244    -0.72900
O83         O  0.93617021  0.01555731  0.49047586    -0.72700
O84         O  0.03111750  0.93604510  0.44657061    -0.72200
O85         O  0.90410805  0.94120940  0.52949437    -0.72900
O86         O  0.01129867  0.88533408  0.47438369    -0.72500
O87         O  0.98697094  0.01186226  0.45628170    -0.73100
O88         O  0.93733607  0.94590816  0.35597129    -0.72500
O89         O  0.86053785  0.97613494  0.45812122    -0.73200
O90         O  0.98813739  0.97195020  0.37757741    -0.72600
O91         O  0.86250799  0.94562110  0.40505382    -0.73100
O92         O  0.90959367  0.86977431  0.39583725    -0.73000
O93         O  0.93658829  0.84592982  0.44532011    -0.72800
C94         C  0.91705613  0.91162788  0.54344431     0.79000
C95         C  0.96621296  0.02935572  0.47851863     0.79500
C96         C  0.03748179  0.90589653  0.46329539     0.78400
C97         C  0.96701545  0.96395964  0.35073683     0.78800
C98         C  0.84518070  0.96568619  0.42818559     0.80000
C99         C  0.91930387  0.84192772  0.41496440     0.79000
C100        C  0.54687404  0.05145552  0.30505454     0.82100
N101        N  0.57692446  0.03662649  0.32204824    -0.76200
C102        C  0.59355758  0.05444878  0.35059157     0.84500
N103        N  0.58009344  0.08748005  0.36208096    -0.72200
C104        C  0.55000142  0.10260316  0.34579810     0.84600
N105        N  0.53365168  0.08454573  0.31722071    -0.77900
C106        C  0.05360152  0.28372084  0.54953633     0.82100
N107        N  0.08527556  0.29717926  0.53467158    -0.76200
C108        C  0.09772966  0.33124643  0.54418350     0.84500
N109        N  0.07853077  0.35160583  0.56895823    -0.76200
C110        C  0.04711786  0.33865156  0.58440253     0.84600
N111        N  0.03486007  0.30453614  0.57460896    -0.77900
C112        C  0.33869109  0.54730763  0.09239407     0.82100
N113        N  0.35597888  0.57684955  0.07718966    -0.76200
C114        C  0.34528678  0.59064673  0.04401928     0.84500
N115        N  0.31664175  0.57433696  0.02606393    -0.76200
C116        C  0.29893088  0.54459953  0.04060409     0.84600
N117        N  0.31006894  0.53148395  0.07398878    -0.77900
Zn118      Zn  0.48823179  0.42791490  0.46345892     1.49700
Zn119      Zn  0.41297941  0.42147197  0.41689637     1.49400
Zn120      Zn  0.41679867  0.46642477  0.49428794     1.49100
Zn121      Zn  0.45417908  0.49802374  0.42135620     1.49500
O122        O  0.44293533  0.45327621  0.44897072    -1.82300
O123        O  0.48954064  0.37702348  0.44172984    -0.72900
O124        O  0.36388113  0.41241041  0.44122339    -0.72700
O125        O  0.44191941  0.44704499  0.54028948    -0.72200
O126        O  0.43825849  0.37232671  0.40844644    -0.72900
O127        O  0.49301069  0.42139043  0.51877886    -0.72500
O128        O  0.36634056  0.44458411  0.49337561    -0.73100
O129        O  0.43772233  0.54330177  0.44846038    -0.72500
O130        O  0.40321318  0.44432677  0.36648923    -0.73200
O131        O  0.41123382  0.52145191  0.49912914    -0.72600
O132        O  0.43047781  0.49876215  0.37110823    -0.73100
O133        O  0.50825338  0.50187846  0.41279105    -0.73000
O134        O  0.53233928  0.45467455  0.44344979    -0.72800
C135        C  0.46840931  0.35875249  0.42042489     0.79000
C136        C  0.34906955  0.42352119  0.47117741     0.79500
C137        C  0.47195138  0.42960948  0.54572257     0.78400
C138        C  0.42081697  0.54843156  0.47879837     0.78800
C139        C  0.41173355  0.47549916  0.35260524     0.80000
C140        C  0.53599911  0.48294938  0.42291973     0.79000
C141        C  0.37719000  0.46658743  0.25339217     0.14500
C142        C  0.37997371  0.50315998  0.24075881     0.01500
C143        C  0.39266249  0.53060429  0.26509178     0.16500
C144        C  0.40263144  0.52171466  0.30132809     0.25900
C145        C  0.40011690  0.48498474  0.31421755    -0.40500
C146        C  0.38712480  0.45753725  0.28969057     0.32900
C147        C  0.36974356  0.51286028  0.20223963     0.01500
F148        F  0.39488389  0.56631565  0.25387699    -0.12800
F149        F  0.38476492  0.42170009  0.30041667    -0.13300
C150        C  0.33366652  0.50698914  0.18929696     0.16500
C151        C  0.32367825  0.51745952  0.15342948     0.25900
C152        C  0.34963399  0.53414315  0.12972952    -0.40400
C153        C  0.38591578  0.53954567  0.14271497     0.32800
C154        C  0.39581852  0.52896869  0.17852358     0.14500
F155        F  0.30768949  0.49229053  0.21190763    -0.12800
F156        F  0.41207160  0.55474707  0.12064746    -0.13300
F157        F  0.28815410  0.51265036  0.14257368    -0.15600
F158        F  0.43108631  0.53424688  0.19001285    -0.14100
F159        F  0.36566257  0.43940059  0.23022638    -0.14100
F160        F  0.41438951  0.54936507  0.32382174    -0.15500
C161        C  0.25845483  0.41223960  0.52256408     0.14500
C162        C  0.24007858  0.38646606  0.50016883     0.01500
C163        C  0.25707552  0.37370809  0.46777192     0.16500
C164        C  0.29227451  0.38587439  0.45816978     0.25900
C165        C  0.31115623  0.41144418  0.48071933    -0.40500
C166        C  0.29354745  0.42479798  0.51290576     0.32900
C167        C  0.20339858  0.37234864  0.51074018     0.01500
F168        F  0.23939187  0.34949923  0.44521047    -0.12800
F169        F  0.31020032  0.44982800  0.53537888    -0.13300
C170        C  0.17388503  0.39681802  0.51652877     0.16500
C171        C  0.13926417  0.38333752  0.52656624     0.25900
C172        C  0.13349358  0.34508268  0.53065688    -0.40400
C173        C  0.16304790  0.32060993  0.52453024     0.32800
C174        C  0.19775949  0.33418495  0.51492671     0.14500
F175        F  0.17850753  0.43378074  0.51212214    -0.12800
F176        F  0.15892484  0.28368915  0.52955467    -0.13300
F177        F  0.11130007  0.40774769  0.53201370    -0.15600
F178        F  0.22624726  0.31011951  0.51085069    -0.14100
F179        F  0.24278540  0.42461293  0.55433914    -0.14100
F180        F  0.30781396  0.37220202  0.42689154    -0.15500
C181        C  0.55122809  0.20156660  0.38031028     0.14500
C182        C  0.51391376  0.21164053  0.37738946     0.01500
C183        C  0.48833335  0.18557711  0.36415740     0.16500
C184        C  0.49992158  0.15010419  0.35385117     0.25900
C185        C  0.53727006  0.13989349  0.35707360    -0.40500
C186        C  0.56275084  0.16604228  0.37057611     0.32900
C187        C  0.50178257  0.24921887  0.38843770     0.01500
F188        F  0.45194846  0.19424066  0.36194751    -0.12800
F189        F  0.59917019  0.15775086  0.37332272    -0.13300
C190        C  0.48224982  0.27177171  0.36361069     0.16500
C191        C  0.47083150  0.30719824  0.37415687     0.25900
C192        C  0.47939742  0.32096166  0.40947967    -0.40400
C193        C  0.49931626  0.29852673  0.43414208     0.32800
C194        C  0.51007162  0.26289329  0.42384316     0.14500
F195        F  0.47513043  0.25987797  0.32875645    -0.12800
F196        F  0.50770490  0.31076699  0.46860707    -0.13300
F197        F  0.45256775  0.32852253  0.34934692    -0.15600
F198        F  0.52813653  0.24148608  0.44873575    -0.14100
F199        F  0.57679564  0.22646628  0.39183437    -0.14100
F200        F  0.47441017  0.12551079  0.34161847    -0.15500
C201        C  0.00758420  0.12478941  0.47515174     0.14500
C202        C  0.00301607  0.13690029  0.51170658     0.01500
C203        C  0.98552215  0.11368594  0.53740000     0.16500
C204        C  0.97267830  0.07884319  0.52657458     0.25900
C205        C  0.97765780  0.06664803  0.49004389    -0.40500
C206        C  0.99526247  0.08990593  0.46447534     0.32900
C207        C  0.01620266  0.17396347  0.52262504     0.01500
F208        F  0.98174208  0.12441964  0.57314272    -0.12800
F209        F  0.99993281  0.07910984  0.42883976    -0.13300
C210        C  0.99141151  0.20025747  0.53665086     0.16500
C211        C  0.00347223  0.23588766  0.54534361     0.25900
C212        C  0.04068467  0.24595812  0.54007087    -0.40400
C213        C  0.06549370  0.21931109  0.52609167     0.32800
C214        C  0.05334248  0.18368643  0.51759862     0.14500
F215        F  0.95518439  0.19173549  0.54087833    -0.12800
F216        F  0.10173856  0.22730316  0.52118113    -0.13300
F217        F  0.97834893  0.26072704  0.55792750    -0.15600
F218        F  0.07800151  0.15846949  0.50474718    -0.14100
F219        F  0.02349144  0.14705175  0.44957565    -0.14100
F220        F  0.95672680  0.05651892  0.55206102    -0.15500
C221        C  0.75037015  0.01087279  0.43580996     0.14500
C222        C  0.73401026  0.00025048  0.40231900     0.01500
C223        C  0.75386011  0.97792178  0.37767432     0.16500
C224        C  0.78971146  0.96652620  0.38612584     0.25900
C225        C  0.80658166  0.97718481  0.41970045    -0.40500
C226        C  0.78622096  0.99937747  0.44456006     0.32900
C227        C  0.69707745  0.01410984  0.39186697     0.01500
F228        F  0.73888089  0.96813013  0.34470760    -0.12800
F229        F  0.80093434  0.01034754  0.47725841    -0.13300
C230        C  0.69188635  0.05193455  0.38525643     0.16500
C231        C  0.65793221  0.06500365  0.37257428     0.25900
C232        C  0.62853413  0.04042619  0.36611992    -0.40400
C233        C  0.63353890  0.00257960  0.37330083     0.32800
C234        C  0.66758245  0.98953372  0.38619894     0.14500
F235        F  0.72027377  0.07602829  0.38954215    -0.12800
F236        F  0.60540709  0.97835744  0.36817419    -0.13300
F237        F  0.65445941  0.10150134  0.36473582    -0.15600
F238        F  0.67187978  0.95292128  0.39308713    -0.14100
F239        F  0.73155349  0.03247606  0.46005526    -0.14100
F240        F  0.80794255  0.94552852  0.36092346    -0.15500
C241        C  0.12189047  0.84925732  0.48809629     0.14500
C242        C  0.14842392  0.87714548  0.49230443     0.01500
C243        C  0.13922281  0.91385069  0.48435884     0.16500
C244        C  0.10344047  0.92298005  0.47370491     0.25900
C245        C  0.07609655  0.89541974  0.47107690    -0.40500
C246        C  0.08585422  0.85830999  0.47769620     0.32900
C247        C  0.18488293  0.86866094  0.50787071     0.01500
F248        F  0.16480954  0.94101901  0.48789844    -0.12800
F249        F  0.06052510  0.83086260  0.47447940    -0.13300
C250        C  0.21081739  0.84846858  0.48752357     0.16500
C251        C  0.24541720  0.84072958  0.50262901     0.25900
C252        C  0.25445029  0.85278601  0.53868395    -0.40400
C253        C  0.22819955  0.87347259  0.55870737     0.32800
C254        C  0.19379905  0.88129871  0.54335855     0.14500
F255        F  0.20270692  0.83655599  0.45288412    -0.12800
F256        F  0.23511032  0.88525936  0.59361046    -0.13300
F257        F  0.27001289  0.82161959  0.48173059    -0.15600
F258        F  0.16868531  0.90056964  0.56351179    -0.14100
F259        F  0.13054833  0.81351749  0.49549499    -0.14100
F260        F  0.09525006  0.95910210  0.46777162    -0.15500
C261        C  0.36882043  0.72172310  0.49654027     0.14500
C262        C  0.38371163  0.69698300  0.52227686     0.01500
C263        C  0.38734218  0.70765399  0.55930685     0.16500
C264        C  0.37491404  0.74225561  0.57090203     0.25900
C265        C  0.35825463  0.76656332  0.54555620    -0.40500
C266        C  0.35608715  0.75629408  0.50807656     0.32900
C267        C  0.39341913  0.65916592  0.51108300     0.01500
F268        F  0.40205550  0.68404713  0.58440934    -0.12800
F269        F  0.34116967  0.77946459  0.48269513    -0.13300
C270        C  0.42367044  0.65267808  0.48790041     0.16500
C271        C  0.43286313  0.61661410  0.47761061     0.25900
C272        C  0.41173731  0.58652597  0.49034707    -0.40400
C273        C  0.38132052  0.59331657  0.51359631     0.32800
C274        C  0.37226741  0.62938367  0.52381749     0.14500
F275        F  0.44458328  0.68127531  0.47572601    -0.12800
F276        F  0.35966379  0.56521250  0.52563092    -0.13300
F277        F  0.46284890  0.61114724  0.45580177    -0.15600
F278        F  0.34237078  0.63540025  0.54562792    -0.14100
F279        F  0.36518624  0.71173840  0.46056310    -0.14100
F280        F  0.37728615  0.75095553  0.60730888    -0.15500
C281        C  0.03347781  0.98858057  0.18273335     0.14500
C282        C  0.00818859  0.00975962  0.20312028     0.01500
C283        C  0.99427342  0.04251410  0.18783793     0.16500
C284        C  0.00627266  0.05456703  0.15317066     0.25900
C285        C  0.03272489  0.03409832  0.13300174    -0.40500
C286        C  0.04557295  0.00047147  0.14805872     0.32900
C287        C  0.99737523  0.99829327  0.24085516     0.01500
F288        F  0.97002666  0.06364562  0.20716467    -0.12800
F289        F  0.06991287  0.97886919  0.12938956    -0.13300
C290        C  0.02419868  0.99535529  0.26866102     0.16500
C291        C  0.01434962  0.98443056  0.30432028     0.25900
C292        C  0.97734441  0.97594031  0.31290122    -0.40400
C293        C  0.95043436  0.97936041  0.28499752     0.32800
C294        C  0.96038894  0.99050627  0.24936121     0.14500
F295        F  0.06000503  0.00359701  0.26135524    -0.12800
F296        F  0.91432436  0.97263463  0.29229317    -0.13300
F297        F  0.04126747  0.98172068  0.33025613    -0.15600
F298        F  0.93393549  0.99327539  0.22297561    -0.14100
F299        F  0.04652379  0.95623739  0.19650954    -0.14100
F300        F  0.99270574  0.08696046  0.14013828    -0.15500
C301        C  0.37890571  0.76330318  0.01606163     0.14500
C302        C  0.39623440  0.73430143  0.99705987     0.01500
C303        C  0.42314326  0.74233350  0.97050787     0.16500
C304        C  0.43317432  0.77902641  0.96349183     0.25900
C305        C  0.41621753  0.80843150  0.98290230    -0.40500
C306        C  0.38865252  0.79998279  0.00908100     0.32900
C307        C  0.38701142  0.69571535  0.00643860     0.01500
F308        F  0.44023086  0.71455663  0.95192036    -0.12800
F309        F  0.37063239  0.82712512  0.02772541    -0.13300
C310        C  0.36466728  0.67435652  0.98313775     0.16500
C311        C  0.35241708  0.63944952  0.99443217     0.25900
C312        C  0.36222924  0.62533693  0.02949444    -0.40400
C313        C  0.38668661  0.64625642  0.05163487     0.32800
C314        C  0.39867542  0.68107612  0.04022174     0.14500
F315        F  0.35351897  0.68794401  0.95004893    -0.12800
F316        F  0.39822693  0.63388138  0.08503981    -0.13300
F317        F  0.33039777  0.62000473  0.97117196    -0.15600
F318        F  0.42109178  0.70108132  0.06267431    -0.14100
F319        F  0.35227599  0.75597970  0.04137437    -0.14100
F320        F  0.45988440  0.78556133  0.93806428    -0.15500
C321        C  0.52574285  0.99824091  0.13461915     0.14500
C322        C  0.49909535  0.99586691  0.16266134     0.01500
C323        C  0.46352779  0.98329558  0.15379410     0.16500
C324        C  0.45472807  0.97320981  0.11747544     0.25900
C325        C  0.48141253  0.97556355  0.08918635    -0.40500
C326        C  0.51707680  0.98824792  0.09832849     0.32900
C327        C  0.50848958  0.00733753  0.20088487     0.01500
F328        F  0.43731652  0.98057170  0.18041989    -0.12800
F329        F  0.54382225  0.99094799  0.07223036    -0.13300
C330        C  0.48963825  0.03666881  0.21791117     0.16500
C331        C  0.50082802  0.04984369  0.25251622     0.25900
C332        C  0.53150595  0.03411900  0.27082816    -0.40400
C333        C  0.54903228  0.00330553  0.25432269     0.32800
C334        C  0.53766152  0.99024156  0.21976368     0.14500
F335        F  0.46136410  0.05376513  0.20023038    -0.12800
F336        F  0.57799039  0.98624011  0.27086092    -0.13300
F337        F  0.48201638  0.07870205  0.26740936    -0.15600
F338        F  0.55562367  0.96108925  0.20436525    -0.14100
F339        F  0.56010831  0.01108171  0.14225860    -0.14100
F340        F  0.41979346  0.96195471  0.10998815    -0.15500
C341        C  0.39841437  0.87095511  0.76941249     0.14500
C342        C  0.38210895  0.89800705  0.74696848     0.01500
C343        C  0.37782786  0.93405701  0.76066124     0.16500
C344        C  0.39006134  0.94307489  0.79617430     0.25900
C345        C  0.40698732  0.91612184  0.81863879    -0.40500
C346        C  0.41085179  0.87986822  0.80479346     0.32900
C347        C  0.37007998  0.88839397  0.70914796     0.01500
F348        F  0.36246865  0.96075659  0.73932119    -0.12800
F349        F  0.42594111  0.85265192  0.82568008    -0.13300
C350        C  0.33302300  0.89240620  0.69853183     0.16500
C351        C  0.32134615  0.88050732  0.66365693     0.25900
C352        C  0.34659465  0.86417053  0.63889870    -0.40400
C353        C  0.38398342  0.86155840  0.64923412     0.32800
C354        C  0.39555398  0.87361178  0.68395365     0.14500
F355        F  0.30778547  0.90623698  0.72258676    -0.12800
F356        F  0.40948993  0.84711126  0.62583230    -0.13300
F357        F  0.28500307  0.88321385  0.65507583    -0.15600
F358        F  0.43174223  0.87053873  0.69317111    -0.14100
F359        F  0.40172778  0.83558332  0.75722528    -0.14100
F360        F  0.38579679  0.97837634  0.80821706    -0.15500
C361        C  0.17294492  0.01876390  0.98879032     0.14500
C362        C  0.20123062  0.01116620  0.01424182     0.01500
C363        C  0.19412542  0.01515411  0.05219155     0.16500
C364        C  0.15934752  0.02636988  0.06453482     0.25900
C365        C  0.13111710  0.03434833  0.03911487    -0.40500
C366        C  0.13823294  0.03052049  0.00111691     0.32900
C367        C  0.23837181  0.99959530  0.00152764     0.01500
F368        F  0.22130512  0.00927989  0.07731609    -0.12800
F369        F  0.11137156  0.03752486  0.97595568    -0.13300
C370        C  0.25914790  0.02239677  0.97806485     0.16500
C371        C  0.29520478  0.01261367  0.96819246     0.25900
C372        C  0.31131089  0.97992981  0.98192262    -0.40400
C373        C  0.28994642  0.95664386  0.00458153     0.32800
C374        C  0.25386773  0.96637057  0.01417090     0.14500
F375        F  0.24502115  0.05490320  0.96583348    -0.12800
F376        F  0.30377332  0.92418118  0.01726748    -0.13300
F377        F  0.31472379  0.03588112  0.94628560    -0.15600
F378        F  0.23393665  0.94323705  0.03585832    -0.14100
F379        F  0.17882432  0.01434861  0.95202722    -0.14100
F380        F  0.15380736  0.03098499  0.10133544    -0.15500
C381        C  0.47818235  0.13164229  0.87365576     0.14500
C382        C  0.49443254  0.15512443  0.90002986     0.01500
C383        C  0.50055420  0.14182119  0.93594900     0.16500
C384        C  0.49160909  0.10537765  0.94503916     0.25900
C385        C  0.47583377  0.08170894  0.91853320    -0.40500
C386        C  0.46867644  0.09534528  0.88290168     0.32900
C387        C  0.50714074  0.19255952  0.88933891     0.01500
F388        F  0.51523545  0.16418423  0.96226363    -0.12800
F389        F  0.45403949  0.07303797  0.85651275    -0.13300
C390        C  0.48267146  0.21822110  0.87356410     0.16500
C391        C  0.49562712  0.25227168  0.86059056     0.25900
C392        C  0.53332029  0.26137386  0.86337155    -0.40400
C393        C  0.55739139  0.23617964  0.88074625     0.32800
C394        C  0.54446762  0.20211447  0.89331140     0.14500
F395        F  0.44619174  0.21023844  0.87067461    -0.12800
F396        F  0.59393584  0.24352547  0.88407722    -0.13300
F397        F  0.47121859  0.27637616  0.84550549    -0.15600
F398        F  0.56889890  0.17768456  0.90786907    -0.14100
F399        F  0.47295952  0.14337609  0.83845948    -0.14100
F400        F  0.49789541  0.09336571  0.97996720    -0.15500
C401        C  0.50396172  0.34290931  0.70369463     0.14500
C402        C  0.50835286  0.38023736  0.69397160     0.01500
C403        C  0.52298321  0.40497946  0.72010300     0.16500
C404        C  0.53428278  0.39239535  0.75484558     0.25900
C405        C  0.53100789  0.35479574  0.76423856    -0.40500
C406        C  0.51503552  0.33030342  0.73850349     0.32900
C407        C  0.49903940  0.39307517  0.65615990     0.01500
F408        F  0.52759826  0.44116707  0.71147361    -0.12800
F409        F  0.51172627  0.29376177  0.74625095    -0.13300
C410        C  0.47276792  0.42108078  0.65067594     0.16500
C411        C  0.46430034  0.43333246  0.61498530     0.25900
C412        C  0.48202800  0.41781936  0.58387413    -0.40400
C413        C  0.50858259  0.38985084  0.58963205     0.32800
C414        C  0.51690536  0.37765784  0.62533692     0.14500
F415        F  0.45478935  0.43616987  0.67994370    -0.12800
F416        F  0.52612367  0.37361400  0.56071299    -0.13300
F417        F  0.43883436  0.46056803  0.61105000    -0.15600
F418        F  0.54285197  0.35095463  0.62985966    -0.14100
F419        F  0.48929125  0.31851337  0.67924165    -0.14100
F420        F  0.54861422  0.41702958  0.77925676    -0.15500
C421        C  0.15255147  0.46034818  0.96334699     0.14500
C422        C  0.16063920  0.49538993  0.97784866     0.01500
C423        C  0.13221685  0.52142194  0.98183500     0.16500
C424        C  0.09593570  0.51224855  0.97256537     0.25900
C425        C  0.08734060  0.47672907  0.95890332    -0.40500
C426        C  0.11628675  0.45110819  0.95371308     0.32900
C427        C  0.19821727  0.50449810  0.99084053     0.01500
F428        F  0.13947966  0.55547891  0.99587435    -0.12800
F429        F  0.10948462  0.41669637  0.94036518    -0.13300
C430        C  0.21866426  0.53236006  0.97356466     0.16500
C431        C  0.25217920  0.54422496  0.98861323     0.25900
C432        C  0.26576747  0.52872997  0.02178496    -0.40400
C433        C  0.24586869  0.49921872  0.03778767     0.32800
C434        C  0.21247991  0.48735435  0.02243226     0.14500
F435        F  0.20572091  0.54862980  0.94239253    -0.12800
F436        F  0.25791593  0.48229501  0.06894045    -0.13300
F437        F  0.27060572  0.57156048  0.97092969    -0.15600
F438        F  0.19310799  0.46020507  0.03948507    -0.14100
F439        F  0.17980277  0.43498702  0.95879398    -0.14100
F440        F  0.06927836  0.53825180  0.97712216    -0.15500
C441        C  0.98311314  0.36266922  0.66368254     0.14500
C442        C  0.00425418  0.38915137  0.68237628     0.01500
C443        C  0.03632662  0.40303140  0.66608300     0.16500
C444        C  0.04887445  0.38857417  0.63270097     0.25900
C445        C  0.02967804  0.35932413  0.61527245    -0.40500
C446        C  0.99564916  0.34782578  0.63029575     0.32900
C447        C  0.99594068  0.39849147  0.72094719     0.01500
F448        F  0.05664196  0.42923084  0.68365830    -0.12800
F449        F  0.97517213  0.32118442  0.61365504    -0.13300
C450        C  0.01789033  0.38348164  0.74899685     0.16500
C451        C  0.01052475  0.39156331  0.78589458     0.25900
C452        C  0.98095200  0.41509239  0.79545878    -0.40400
C453        C  0.95912618  0.43034024  0.76689738     0.32800
C454        C  0.96659150  0.42194345  0.72995270     0.14500
F455        F  0.04633125  0.36050901  0.74052918    -0.12800
F456        F  0.93056671  0.45343653  0.77447958    -0.13300
F457        F  0.03231433  0.37598105  0.81208791    -0.15600
F458        F  0.94545053  0.43697294  0.70292063    -0.14100
F459        F  0.95158781  0.34948023  0.67899216    -0.14100
F460        F  0.08110956  0.40181681  0.61899657    -0.15500
C461        C  0.00364407  0.18683487  0.04003359     0.14500
C462        C  0.00931211  0.19473201  0.00255217     0.01500
C463        C  0.02526206  0.16771686  0.97964874     0.16500
C464        C  0.03620896  0.13359433  0.99428108     0.25900
C465        C  0.03151982  0.12601470  0.03216293    -0.40500
C466        C  0.01453931  0.15286633  0.05471653     0.32900
C467        C  0.99958666  0.23172666  0.98804153     0.01500
F468        F  0.03028406  0.17444997  0.94313678    -0.12800
F469        F  0.01025734  0.14722439  0.09148968    -0.13300
C470        C  0.02728751  0.25588329  0.97584356     0.16500
C471        C  0.01847600  0.29200897  0.96514983     0.25900
C472        C  0.98163393  0.30468790  0.96642044    -0.40400
C473        C  0.95389429  0.28000136  0.97805514     0.32800
C474        C  0.96284009  0.24394346  0.98872895     0.14500
F475        F  0.06312894  0.24491085  0.97567302    -0.12800
F476        F  0.91796529  0.29057538  0.97892972    -0.13300
F477        F  0.04628537  0.31490428  0.95488018    -0.15600
F478        F  0.93555950  0.22082956  0.99987235    -0.14100
F479        F  0.98897023  0.21278319  0.06285397    -0.14100
F480        F  0.05136581  0.10798933  0.97138017    -0.15500
C481        C  0.69255202  0.34292465  0.88021963     0.14500
C482        C  0.70159279  0.38047547  0.87726279     0.01500
C483        C  0.67509236  0.40543380  0.86382056     0.16500
C484        C  0.64009011  0.39285284  0.85318373     0.25900
C485        C  0.63107021  0.35510677  0.85597313    -0.40500
C486        C  0.65771345  0.33034301  0.86973190     0.32900
C487        C  0.73931465  0.39284577  0.88679563     0.01500
F488        F  0.68309517  0.44197763  0.86119062    -0.12800
F489        F  0.65080427  0.29354746  0.87140093    -0.13300
C490        C  0.76248277  0.40741613  0.85943607     0.16500
C491        C  0.79927697  0.41580311  0.86747079     0.25900
C492        C  0.81365640  0.40970498  0.90314521    -0.40400
C493        C  0.79003782  0.39574575  0.93070659     0.32800
C494        C  0.75323560  0.38746744  0.92256461     0.14500
F495        F  0.74984934  0.41212875  0.82446836    -0.12800
F496        F  0.80235520  0.39038921  0.96569127    -0.13300
F497        F  0.82108574  0.42868841  0.83988542    -0.15600
F498        F  0.73109074  0.37406182  0.94963213    -0.14100
F499        F  0.71808040  0.31811222  0.89198691    -0.14100
F500        F  0.61493783  0.41761464  0.84057129    -0.15500
C501        C  0.86026384  0.47444209  0.11032693     0.14500
C502        C  0.88443433  0.49118865  0.13561966     0.01500
C503        C  0.92179197  0.49546836  0.12631218     0.16500
C504        C  0.93461611  0.48423926  0.09172263     0.25900
C505        C  0.91035090  0.46809770  0.06607753    -0.40500
C506        C  0.87315089  0.46280294  0.07583905     0.32900
C507        C  0.87033493  0.50613756  0.17083509     0.01500
F508        F  0.94577828  0.51082670  0.15070436    -0.12800
F509        F  0.84882118  0.44832130  0.05124362    -0.13300
C510        C  0.85340296  0.48289415  0.19676927     0.16500
C511        C  0.83959311  0.49746399  0.22978114     0.25900
C512        C  0.84273207  0.53550607  0.23737721    -0.40400
C513        C  0.85977221  0.55866216  0.21129792     0.32800
C514        C  0.87333896  0.54409193  0.17830523     0.14500
F515        F  0.85077364  0.44601497  0.19032433    -0.12800
F516        F  0.86216015  0.59566865  0.21706798    -0.13300
F517        F  0.82391210  0.47424251  0.25462727    -0.15600
F518        F  0.88859863  0.56724197  0.15312174    -0.14100
F519        F  0.82384301  0.47096305  0.11838528    -0.14100
F520        F  0.97078122  0.48911644  0.08328416    -0.15500
C521        C  0.90417116  0.73795888  0.41222473     0.14500
C522        C  0.88947524  0.73320020  0.37668468     0.01500
C523        C  0.88571782  0.76393472  0.35345037     0.16500
C524        C  0.89606986  0.79901119  0.36559216     0.25900
C525        C  0.91002431  0.80424581  0.40159171    -0.40500
C526        C  0.91436367  0.77312008  0.42463834     0.32900
C527        C  0.87690997  0.69651252  0.36391340     0.01500
F528        F  0.87101811  0.76013552  0.31916145    -0.12800
F529        F  0.92792594  0.77656863  0.45941678    -0.13300
C530        C  0.84904909  0.67772552  0.38306671     0.16500
C531        C  0.83469762  0.64470529  0.36916141     0.25900
C532        C  0.84777741  0.62988616  0.33546681    -0.40400
C533        C  0.87663693  0.64843102  0.31700624     0.32800
C534        C  0.89104827  0.68126749  0.33121174     0.14500
F535        F  0.83460783  0.69216001  0.41455378    -0.12800
F536        F  0.89048794  0.63559061  0.28461450    -0.13300
F537        F  0.80749734  0.62783280  0.38858410    -0.15600
F538        F  0.91861960  0.69855382  0.31267357    -0.14100
F539        F  0.90872857  0.70847835  0.43490464    -0.14100
F540        F  0.89226753  0.82777758  0.34189118    -0.15500
C541        C  0.70595535  0.53270222  0.38616792     0.14500
C542        C  0.67812988  0.51963411  0.36278430     0.01500
C543        C  0.68490939  0.51552686  0.32491893     0.16500
C544        C  0.71928508  0.52505508  0.31035595     0.25900
C545        C  0.74708971  0.53922309  0.33360492    -0.40500
C546        C  0.74021255  0.54248704  0.37174260     0.32900
C547        C  0.64192989  0.51043802  0.37817309     0.01500
F548        F  0.65807210  0.50268810  0.30209855    -0.12800
F549        F  0.76669961  0.55493438  0.39516047    -0.13300
C550        C  0.61305763  0.53608564  0.37644828     0.16500
C551        C  0.57883497  0.52768999  0.39192486     0.25900
C552        C  0.57301216  0.49323065  0.40918609    -0.40400
C553        C  0.60246750  0.46779238  0.41106774     0.32800
C554        C  0.63662763  0.47644655  0.39567314     0.14500
F555        F  0.61814888  0.56933246  0.35990374    -0.12800
F556        F  0.59812323  0.43410411  0.42688758    -0.13300
F557        F  0.55156775  0.55338396  0.39001917    -0.15600
F558        F  0.66452447  0.45145114  0.39738817    -0.14100
F559        F  0.69963715  0.53647332  0.42293548    -0.14100
F560        F  0.72477444  0.52178983  0.27341195    -0.15500
C561        C  0.85347373  0.70324576  0.89729909     0.14500
C562        C  0.88953586  0.69255194  0.88793556     0.01500
C563        C  0.91291704  0.71803392  0.87059508     0.16500
C564        C  0.89970175  0.75294651  0.86064866     0.25900
C565        C  0.86277801  0.76300784  0.86791470    -0.40500
C566        C  0.84018302  0.73815783  0.88751689     0.32900
C567        C  0.90148937  0.65385306  0.89335835     0.01500
F568        F  0.94797280  0.70838533  0.86150525    -0.12800
F569        F  0.80451581  0.74657957  0.89530950    -0.13300
C570        C  0.88299012  0.62531705  0.87473691     0.16500
C571        C  0.89328194  0.58851993  0.87996908     0.25900
C572        C  0.92235630  0.57939522  0.90419001    -0.40400
C573        C  0.94155348  0.60827825  0.92208002     0.32800
C574        C  0.93120223  0.64516658  0.91662181     0.14500
F575        F  0.85487400  0.63318566  0.85123909    -0.12800
F576        F  0.97042095  0.60095938  0.94481511    -0.13300
F577        F  0.87404420  0.56187289  0.86187697    -0.15600
F578        F  0.94969211  0.67237588  0.93465293    -0.14100
F579        F  0.83069335  0.67927521  0.91489172    -0.14100
F580        F  0.92287102  0.77655371  0.84308392    -0.15500
C581        C  0.71799752  0.86050277  0.91349372     0.14500
C582        C  0.69551443  0.88275638  0.89125676     0.01500
C583        C  0.70843566  0.89411847  0.85663379     0.16500
C584        C  0.74289598  0.88228028  0.84370658     0.25900
C585        C  0.76526802  0.85871797  0.86532625    -0.40500
C586        C  0.75259870  0.84874281  0.90086486     0.32900
C587        C  0.65759777  0.89219394  0.90309064     0.01500
F588        F  0.68698409  0.91565075  0.83472187    -0.12800
F589        F  0.77340230  0.82731605  0.92347814    -0.13300
C590        C  0.64928992  0.92738443  0.91707945     0.16500
C591        C  0.61301625  0.93646449  0.92705509     0.25900
C592        C  0.58421919  0.91048925  0.92280442    -0.40400
C593        C  0.59303022  0.87498671  0.90909056     0.32800
C594        C  0.62934201  0.86601510  0.89945358     0.14500
F595        F  0.67636272  0.95300700  0.92093286    -0.12800
F596        F  0.56661276  0.84870885  0.90506262    -0.13300
F597        F  0.60610703  0.97098212  0.94009255    -0.15600
F598        F  0.63691287  0.83181130  0.88592786    -0.14100
F599        F  0.70613310  0.84971687  0.94734539    -0.14100
F600        F  0.75349128  0.89292283  0.80939862    -0.15500
C601        C  0.92740802  0.87918831  0.64236834     0.14500
C602        C  0.89171615  0.88518834  0.65652371     0.01500
C603        C  0.86452767  0.90015649  0.63314708     0.16500
C604        C  0.87290235  0.90921385  0.59656453     0.25900
C605        C  0.90832419  0.90247093  0.58224990    -0.40500
C606        C  0.93547432  0.88725342  0.60545588     0.32900
C607        C  0.88235617  0.87473127  0.69512183     0.01500
F608        F  0.82944441  0.90496982  0.64538997    -0.12800
F609        F  0.97017475  0.88115115  0.59267893    -0.13300
C610        C  0.86474401  0.90001639  0.71888965     0.16500
C611        C  0.85322819  0.88915836  0.75413952     0.25900
C612        C  0.85976226  0.85294505  0.76672153    -0.40400
C613        C  0.87880232  0.82812782  0.74339233     0.32800
C614        C  0.88960058  0.83881207  0.70793986     0.14500
F615        F  0.85874121  0.93538405  0.70799198    -0.12800
F616        F  0.88562347  0.79283152  0.75406318    -0.13300
F617        F  0.83590000  0.91427248  0.77599764    -0.15600
F618        F  0.90577550  0.81338583  0.68554398    -0.14100
F619        F  0.95468253  0.86603968  0.66444330    -0.14100
F620        F  0.84595679  0.92340297  0.57473968    -0.15500
loop_ 
_geom_bond_atom_site_label_1 
_geom_bond_atom_site_label_2 
_geom_bond_distance 
_geom_bond_site_symmetry_2 
_ccdc_geom_bond_type 
C1            N2   1.360       .  A
C1            N6   1.356       .  A
C1          C612   1.488       .  S
N2            C3   1.362       .  A
C3            N4   1.360       .  A
C3          C585   1.495       .  S
N4            C5   1.359       .  A
C5            N6   1.357       .  A
C5          C565   1.485       .  S
C7            N8   1.358       .  A
C7           N12   1.357       .  A
C7          C512   1.476       .  S
N8            C9   1.357       .  A
C9           N10   1.356       .  A
C9          C532   1.488       .  S
N10          C11   1.356       .  A
C11          N12   1.357       .  A
C11         C545   1.475       .  S
Zn13         O17   1.954       .  S
Zn13         O18   2.010       .  S
Zn13         O22   2.008       .  S
Zn13         O29   1.999       .  S
Zn14         O17   1.954       .  S
Zn14         O19   2.005   1_556  S
Zn14         O21   2.016       .  S
Zn14         O25   2.010   1_655  S
Zn15         O17   1.961       .  S
Zn15         O20   2.022       .  S
Zn15         O23   2.013   1_556  S
Zn15         O26   2.030       .  S
Zn16         O17   1.956       .  S
Zn16         O24   2.022       .  S
Zn16         O27   2.023   1_655  S
Zn16         O28   2.012       .  S
O18          C30   1.272       .  A
O19          C31   1.273       .  A
O20          C32   1.274       .  A
O21          C30   1.272       .  A
O22          C32   1.272       .  A
O23          C31   1.273       .  A
O24          C33   1.274       .  A
O25          C34   1.273       .  A
O26          C33   1.276       .  A
O27          C34   1.274       .  A
O28          C35   1.274       .  A
O29          C35   1.272       .  A
C30         C572   1.487       .  S
C31         C505   1.473       .  S
C32         C492   1.485       .  S
C33         C472   1.490       .  S
C34         C425   1.487       .  S
C35         C452   1.485       .  S
C36          N37   1.360       .  A
C36          N41   1.357       .  A
C36         C392   1.486       .  S
N37          C38   1.361       .  A
C38          N39   1.360       .  A
C38         C405   1.485       .  S
N39          C40   1.358       .  A
C40          N41   1.357       .  A
C40         C485   1.482       .  S
Zn42         O46   1.957       .  S
Zn42         O47   2.018   1_565  S
Zn42         O51   2.032       .  S
Zn42         O58   2.016   1_556  S
Zn43         O46   1.965       .  S
Zn43         O48   2.009       .  S
Zn43         O50   2.019   1_565  S
Zn43         O54   2.019       .  S
Zn44         O46   1.957       .  S
Zn44         O49   2.022       .  S
Zn44         O52   2.011       .  S
Zn44         O55   2.014       .  S
Zn45         O46   1.960       .  S
Zn45         O53   2.023       .  S
Zn45         O56   2.014       .  S
Zn45         O57   2.028   1_556  S
O47          C59   1.274       .  A
O48          C60   1.272       .  A
O49          C61   1.275       .  A
O50          C59   1.274       .  A
O51          C61   1.275       .  A
O52          C60   1.273       .  A
O53          C62   1.275       .  A
O54          C63   1.273       .  A
O55          C62   1.273       .  A
O56          C63   1.273       .  A
O57          C64   1.275       .  A
O58          C64   1.274       .  A
C59         C385   1.478       .  S
C60         C345   1.484       .  S
C61         C592   1.492       .  S
C62         C305   1.490       .  S
C63         C372   1.485       .  S
C64         C325   1.490       .  S
C65          N66   1.358       .  A
C65          N70   1.357       .  A
C65         C365   1.478       .  S
N66          C67   1.359       .  A
C67          N68   1.360       .  A
C67         C285   1.494       .  S
N68          C69   1.361       .  A
C69          N70   1.358       .  A
C69         C465   1.485       .  S
C71          N72   1.356       .  A
C71          N76   1.361       .  A
C71         C252   1.484       .  S
N72          C73   1.354       .  A
C73          N74   1.355       .  A
C73         C265   1.475       .  S
N74          C75   1.357       .  A
C75          N76   1.359       .  A
C75         C352   1.482       .  S
Zn77         O81   1.962       .  S
Zn77         O82   2.021       .  S
Zn77         O86   2.012   1_655  S
Zn77         O93   2.012       .  S
Zn78         O81   1.966       .  S
Zn78         O83   2.029   1_565  S
Zn78         O85   2.023       .  S
Zn78         O89   2.031       .  S
Zn79         O81   1.944       .  S
Zn79         O84   1.990   1_655  S
Zn79         O87   1.981   1_565  S
Zn79         O90   2.003       .  S
Zn80         O81   1.950       .  S
Zn80         O88   2.029       .  S
Zn80         O91   2.007       .  S
Zn80         O92   2.006       .  S
O82          C94   1.274       .  A
O83          C95   1.275       .  A
O84          C96   1.270       .  A
O85          C94   1.274       .  A
O86          C96   1.272       .  A
O87          C95   1.270       .  A
O88          C97   1.274       .  A
O89          C98   1.276       .  A
O90          C97   1.270       .  A
O91          C98   1.273       .  A
O92          C99   1.274       .  A
O93          C99   1.274       .  A
C94         C605   1.479       .  S
C95         C205   1.472       .  S
C96         C245   1.477       .  S
C97         C292   1.487       .  S
C98         C225   1.492       .  S
C99         C525   1.485       .  S
C100        N101   1.362       .  A
C100        N105   1.362       .  A
C100        C332   1.496       .  S
N101        C102   1.359       .  A
C102        N103   1.355       .  A
C102        C232   1.477       .  S
N103        C104   1.356       .  A
C104        N105   1.359       .  A
C104        C185   1.482       .  S
C106        N107   1.359       .  A
C106        N111   1.360       .  A
C106        C212   1.484       .  S
N107        C108   1.357       .  A
C108        N109   1.352       .  A
C108        C172   1.474       .  S
N109        C110   1.353       .  A
C110        N111   1.359       .  A
C110        C445   1.485       .  S
C112        N113   1.358       .  A
C112        N117   1.359       .  A
C112        C152   1.489       .  S
N113        C114   1.359       .  A
C114        N115   1.360       .  A
C114        C312   1.495       .  S
N115        C116   1.361       .  A
C116        N117   1.361       .  A
C116        C432   1.496       .  S
Zn118       O122   1.953       .  S
Zn118       O123   2.002       .  S
Zn118       O127   2.026       .  S
Zn118       O134   2.006       .  S
Zn119       O122   1.962       .  S
Zn119       O124   2.014       .  S
Zn119       O126   2.023       .  S
Zn119       O130   2.037       .  S
Zn120       O122   1.953       .  S
Zn120       O125   2.025       .  S
Zn120       O128   1.993       .  S
Zn120       O131   2.009       .  S
Zn121       O122   1.949       .  S
Zn121       O129   1.999       .  S
Zn121       O132   2.013       .  S
Zn121       O133   1.990       .  S
O123        C135   1.272       .  A
O124        C136   1.275       .  A
O125        C137   1.273       .  A
O126        C135   1.274       .  A
O127        C137   1.274       .  A
O128        C136   1.272       .  A
O129        C138   1.272       .  A
O130        C139   1.274       .  A
O131        C138   1.273       .  A
O132        C139   1.272       .  A
O133        C140   1.271       .  A
O134        C140   1.273       .  A
C135        C192   1.477       .  S
C136        C165   1.484       .  S
C137        C412   1.493       .  S
C138        C272   1.477       .  S
C139        C145   1.494       .  S
C140        C552   1.479       .  S
C141        C142   1.405       .  A
C141        C146   1.403       .  A
C141        F159   1.358       .  S
C142        C147   1.486       .  S
C142        C143   1.404       .  A
C143        C144   1.400       .  A
C143        F148   1.358       .  S
C144        C145   1.413       .  A
C144        F160   1.358       .  S
C145        C146   1.412       .  A
C146        F149   1.358       .  S
C147        C150   1.405       .  A
C147        C154   1.405       .  A
C150        C151   1.402       .  A
C150        F155   1.358       .  S
C151        C152   1.411       .  A
C151        F157   1.358       .  S
C152        C153   1.410       .  A
C153        C154   1.400       .  A
C153        F156   1.358       .  S
C154        F158   1.358       .  S
C161        C162   1.403       .  A
C161        C166   1.396       .  A
C161        F179   1.358       .  S
C162        C167   1.476       .  S
C162        C163   1.403       .  A
C163        C164   1.394       .  A
C163        F168   1.358       .  S
C164        C165   1.410       .  A
C164        F180   1.358       .  S
C165        C166   1.413       .  A
C166        F169   1.358       .  S
C167        C170   1.404       .  A
C167        C174   1.405       .  A
C170        C171   1.395       .  A
C170        F175   1.358       .  S
C171        C172   1.409       .  A
C171        F177   1.358       .  S
C172        C173   1.407       .  A
C173        C174   1.396       .  A
C173        F176   1.357       .  S
C174        F178   1.358       .  S
C181        C182   1.405       .  A
C181        C186   1.396       .  A
C181        F199   1.358       .  S
C182        C187   1.483       .  S
C182        C183   1.407       .  A
C183        C184   1.400       .  A
C183        F188   1.358       .  S
C184        C185   1.408       .  A
C184        F200   1.358       .  S
C185        C186   1.410       .  A
C186        F189   1.357       .  S
C187        C190   1.407       .  A
C187        C194   1.406       .  A
C190        C191   1.399       .  A
C190        F195   1.358       .  S
C191        C192   1.407       .  A
C191        F197   1.358       .  S
C192        C193   1.407       .  A
C193        C194   1.397       .  A
C193        F196   1.358       .  S
C194        F198   1.358       .  S
C201        C202   1.404       .  A
C201        C206   1.393   1_455  A
C201        F219   1.358       .  S
C202        C207   1.477       .  S
C202        C203   1.407   1_455  A
C203        C204   1.400       .  A
C203        F208   1.358       .  S
C204        C205   1.406       .  A
C204        F220   1.358       .  S
C205        C206   1.407       .  A
C206        F209   1.358       .  S
C207        C210   1.403   1_455  A
C207        C214   1.404       .  A
C210        C211   1.397   1_655  A
C210        F215   1.358       .  S
C211        C212   1.411       .  A
C211        F217   1.357   1_455  S
C212        C213   1.411       .  A
C213        C214   1.396       .  A
C213        F216   1.357       .  S
C214        F218   1.358       .  S
C221        C222   1.403       .  A
C221        C226   1.401   1_545  A
C221        F239   1.358       .  S
C222        C227   1.479       .  S
C222        C223   1.401   1_545  A
C223        C224   1.397       .  A
C223        F228   1.358       .  S
C224        C225   1.414       .  A
C224        F240   1.358       .  S
C225        C226   1.413       .  A
C226        F229   1.358   1_565  S
C227        C230   1.403       .  A
C227        C234   1.406   1_545  A
C230        C231   1.396       .  A
C230        F235   1.358       .  S
C231        C232   1.408       .  A
C231        F237   1.357       .  S
C232        C233   1.406       .  A
C233        C234   1.401   1_545  A
C233        F236   1.358   1_545  S
C234        F238   1.358       .  S
C241        C242   1.403       .  A
C241        C246   1.398       .  A
C241        F259   1.358       .  S
C242        C247   1.469       .  S
C242        C243   1.400       .  A
C243        C244   1.393       .  A
C243        F248   1.358       .  S
C244        C245   1.410       .  A
C244        F260   1.358       .  S
C245        C246   1.410       .  A
C246        F249   1.358       .  S
C247        C250   1.399       .  A
C247        C254   1.401       .  A
C250        C251   1.397       .  A
C250        F255   1.358       .  S
C251        C252   1.415       .  A
C251        F257   1.358       .  S
C252        C253   1.410       .  A
C253        C254   1.394       .  A
C253        F256   1.357       .  S
C254        F258   1.358       .  S
C261        C262   1.402       .  A
C261        C266   1.396       .  A
C261        F279   1.358       .  S
C262        C267   1.469       .  S
C262        C263   1.401       .  A
C263        C264   1.394       .  A
C263        F268   1.358       .  S
C264        C265   1.409       .  A
C264        F280   1.358       .  S
C265        C266   1.409       .  A
C266        F269   1.358       .  S
C267        C270   1.401       .  A
C267        C274   1.402       .  A
C270        C271   1.397       .  A
C270        F275   1.358       .  S
C271        C272   1.410       .  A
C271        F277   1.358       .  S
C272        C273   1.409       .  A
C273        C274   1.395       .  A
C273        F276   1.358       .  S
C274        F278   1.358       .  S
C281        C282   1.403   1_565  A
C281        C286   1.399   1_565  A
C281        F299   1.358       .  S
C282        C287   1.482   1_445  S
C282        C283   1.403   1_455  A
C283        C284   1.400   1_655  A
C283        F288   1.358       .  S
C284        C285   1.414       .  A
C284        F300   1.357   1_455  S
C285        C286   1.413       .  A
C286        F289   1.358   1_545  S
C287        C290   1.404   1_655  A
C287        C294   1.405       .  A
C290        C291   1.398       .  A
C290        F295   1.358   1_565  S
C291        C292   1.411   1_455  A
C291        F297   1.358       .  S
C292        C293   1.410       .  A
C293        C294   1.401       .  A
C293        F296   1.358       .  S
C294        F298   1.358       .  S
C301        C302   1.402   1_554  A
C301        C306   1.398       .  A
C301        F319   1.358       .  S
C302        C307   1.477   1_556  S
C302        C303   1.401       .  A
C303        C304   1.401       .  A
C303        F308   1.358       .  S
C304        C305   1.414       .  A
C304        F320   1.358       .  S
C305        C306   1.412   1_556  A
C306        F309   1.358       .  S
C307        C310   1.401   1_554  A
C307        C314   1.400       .  A
C310        C311   1.401       .  A
C310        F315   1.358       .  S
C311        C312   1.415   1_556  A
C311        F317   1.357       .  S
C312        C313   1.414       .  A
C313        C314   1.397       .  A
C313        F316   1.357       .  S
C314        F318   1.358       .  S
C321        C322   1.405       .  A
C321        C326   1.398       .  A
C321        F339   1.358   1_565  S
C322        C327   1.484   1_565  S
C322        C323   1.404       .  A
C323        C324   1.401       .  A
C323        F328   1.358       .  S
C324        C325   1.412       .  A
C324        F340   1.358       .  S
C325        C326   1.411       .  A
C326        F329   1.358       .  S
C327        C330   1.404       .  A
C327        C334   1.403   1_545  A
C330        C331   1.400       .  A
C330        F335   1.358       .  S
C331        C332   1.415       .  A
C331        F337   1.358       .  S
C332        C333   1.414       .  A
C333        C334   1.399   1_545  A
C333        F336   1.357   1_545  S
C334        F338   1.358       .  S
C341        C342   1.404       .  A
C341        C346   1.396       .  A
C341        F359   1.358       .  S
C342        C347   1.479       .  S
C342        C343   1.403       .  A
C343        C344   1.399       .  A
C343        F348   1.358       .  S
C344        C345   1.412       .  A
C344        F360   1.358       .  S
C345        C346   1.410       .  A
C346        F349   1.358       .  S
C347        C350   1.405       .  A
C347        C354   1.403       .  A
C350        C351   1.399       .  A
C350        F355   1.358       .  S
C351        C352   1.410       .  A
C351        F357   1.357       .  S
C352        C353   1.409       .  A
C353        C354   1.395       .  A
C353        F356   1.358       .  S
C354        F358   1.358       .  S
C361        C362   1.406   1_556  A
C361        C366   1.401   1_556  A
C361        F379   1.358       .  S
C362        C367   1.483   1_545  S
C362        C363   1.406       .  A
C363        C364   1.397       .  A
C363        F368   1.358       .  S
C364        C365   1.407       .  A
C364        F380   1.358       .  S
C365        C366   1.407       .  A
C366        F369   1.358   1_554  S
C367        C370   1.405   1_564  A
C367        C374   1.404       .  A
C370        C371   1.400       .  A
C370        F375   1.358       .  S
C371        C372   1.410   1_545  A
C371        F377   1.358       .  S
C372        C373   1.410   1_556  A
C373        C374   1.398       .  A
C373        F376   1.358       .  S
C374        F378   1.358       .  S
C381        C382   1.407       .  A
C381        C386   1.400       .  A
C381        F399   1.358       .  S
C382        C387   1.484       .  S
C382        C383   1.406       .  A
C383        C384   1.399       .  A
C383        F388   1.358       .  S
C384        C385   1.407       .  A
C384        F400   1.358       .  S
C385        C386   1.407       .  A
C386        F389   1.358       .  S
C387        C390   1.406       .  A
C387        C394   1.404       .  A
C390        C391   1.401       .  A
C390        F395   1.358       .  S
C391        C392   1.409       .  A
C391        F397   1.358       .  S
C392        C393   1.411       .  A
C393        C394   1.396       .  A
C393        F396   1.357       .  S
C394        F398   1.358       .  S
C401        C402   1.406       .  A
C401        C406   1.401       .  A
C401        F419   1.358       .  S
C402        C407   1.486       .  S
C402        C403   1.406       .  A
C403        C404   1.400       .  A
C403        F408   1.358       .  S
C404        C405   1.409       .  A
C404        F420   1.358       .  S
C405        C406   1.410       .  A
C406        F409   1.358       .  S
C407        C410   1.405       .  A
C407        C414   1.405       .  A
C410        C411   1.402       .  A
C410        F415   1.358       .  S
C411        C412   1.412       .  A
C411        F417   1.358       .  S
C412        C413   1.412       .  A
C413        C414   1.400       .  A
C413        F416   1.358       .  S
C414        F418   1.358       .  S
C421        C422   1.403       .  A
C421        C426   1.401       .  A
C421        F439   1.358       .  S
C422        C427   1.478       .  S
C422        C423   1.403       .  A
C423        C424   1.397       .  A
C423        F428   1.358       .  S
C424        C425   1.411       .  A
C424        F440   1.358       .  S
C425        C426   1.412       .  A
C426        F429   1.358       .  S
C427        C430   1.401       .  A
C427        C434   1.402   1_556  A
C430        C431   1.399       .  A
C430        F435   1.358       .  S
C431        C432   1.415   1_556  A
C431        F437   1.356       .  S
C432        C433   1.415       .  A
C433        C434   1.399       .  A
C433        F436   1.357       .  S
C434        F438   1.358       .  S
C441        C442   1.401   1_655  A
C441        C446   1.398       .  A
C441        F459   1.358       .  S
C442        C447   1.468   1_455  S
C442        C443   1.398       .  A
C443        C444   1.393       .  A
C443        F448   1.358       .  S
C444        C445   1.415       .  A
C444        F460   1.358       .  S
C445        C446   1.412   1_455  A
C446        F449   1.357       .  S
C447        C450   1.401   1_655  A
C447        C454   1.398       .  A
C450        C451   1.393       .  A
C450        F455   1.358       .  S
C451        C452   1.411   1_455  A
C451        F457   1.358       .  S
C452        C453   1.415       .  A
C453        C454   1.398       .  A
C453        F456   1.358       .  S
C454        F458   1.358       .  S
C461        C462   1.403       .  A
C461        C466   1.397       .  A
C461        F479   1.358   1_455  S
C462        C467   1.482   1_454  S
C462        C463   1.405   1_554  A
C463        C464   1.402       .  A
C463        F468   1.358       .  S
C464        C465   1.410   1_556  A
C464        F480   1.358       .  S
C465        C466   1.409       .  A
C466        F469   1.357       .  S
C467        C470   1.404   1_655  A
C467        C474   1.403       .  A
C470        C471   1.401       .  A
C470        F475   1.358       .  S
C471        C472   1.412   1_455  A
C471        F477   1.358       .  S
C472        C473   1.411       .  A
C473        C474   1.400       .  A
C473        F476   1.357       .  S
C474        F478   1.358       .  S
C481        C482   1.403       .  A
C481        C486   1.395       .  A
C481        F499   1.358       .  S
C482        C487   1.480       .  S
C482        C483   1.406       .  A
C483        C484   1.402       .  A
C483        F488   1.358       .  S
C484        C485   1.409       .  A
C484        F500   1.358       .  S
C485        C486   1.409       .  A
C486        F489   1.357       .  S
C487        C490   1.403       .  A
C487        C494   1.404       .  A
C490        C491   1.399       .  A
C490        F495   1.358       .  S
C491        C492   1.411       .  A
C491        F497   1.358       .  S
C492        C493   1.410       .  A
C493        C494   1.399       .  A
C493        F496   1.358       .  S
C494        F498   1.358       .  S
C501        C502   1.404       .  A
C501        C506   1.398       .  A
C501        F519   1.358       .  S
C502        C507   1.476       .  S
C502        C503   1.404       .  A
C503        C504   1.396       .  A
C503        F508   1.358       .  S
C504        C505   1.406       .  A
C504        F520   1.358       .  S
C505        C506   1.407       .  A
C506        F509   1.358       .  S
C507        C510   1.404       .  A
C507        C514   1.404       .  A
C510        C511   1.398       .  A
C510        F515   1.358       .  S
C511        C512   1.408       .  A
C511        F517   1.358       .  S
C512        C513   1.407       .  A
C513        C514   1.395       .  A
C513        F516   1.358       .  S
C514        F518   1.358       .  S
C521        C522   1.404       .  A
C521        C526   1.399       .  A
C521        F539   1.358       .  S
C522        C527   1.477       .  S
C522        C523   1.403       .  A
C523        C524   1.394       .  A
C523        F528   1.358       .  S
C524        C525   1.411       .  A
C524        F540   1.358       .  S
C525        C526   1.412       .  A
C526        F529   1.358       .  S
C527        C530   1.403       .  A
C527        C534   1.402       .  A
C530        C531   1.397       .  A
C530        F535   1.358       .  S
C531        C532   1.414       .  A
C531        F537   1.358       .  S
C532        C533   1.413       .  A
C533        C534   1.396       .  A
C533        F536   1.357       .  S
C534        F538   1.358       .  S
C541        C542   1.399       .  A
C541        C546   1.394       .  A
C541        F559   1.358       .  S
C542        C547   1.465       .  S
C542        C543   1.401       .  A
C543        C544   1.397       .  A
C543        F548   1.358       .  S
C544        C545   1.409       .  A
C544        F560   1.358       .  S
C545        C546   1.409       .  A
C546        F549   1.358       .  S
C547        C550   1.400       .  A
C547        C554   1.399       .  A
C550        C551   1.395       .  A
C550        F555   1.358       .  S
C551        C552   1.412       .  A
C551        F557   1.358       .  S
C552        C553   1.411       .  A
C553        C554   1.394       .  A
C553        F556   1.358       .  S
C554        F558   1.358       .  S
C561        C562   1.404       .  A
C561        C566   1.398       .  A
C561        F579   1.358       .  S
C562        C567   1.479       .  S
C562        C563   1.403       .  A
C563        C564   1.399       .  A
C563        F568   1.358       .  S
C564        C565   1.411       .  A
C564        F580   1.358       .  S
C565        C566   1.410       .  A
C566        F569   1.358       .  S
C567        C570   1.403       .  A
C567        C574   1.403       .  A
C570        C571   1.396       .  A
C570        F575   1.358       .  S
C571        C572   1.411       .  A
C571        F577   1.358       .  S
C572        C573   1.412       .  A
C573        C574   1.401       .  A
C573        F576   1.358       .  S
C574        F578   1.358       .  S
C581        C582   1.401       .  A
C581        C586   1.401       .  A
C581        F599   1.358       .  S
C582        C587   1.479       .  S
C582        C583   1.402       .  A
C583        C584   1.401       .  A
C583        F588   1.358       .  S
C584        C585   1.414       .  A
C584        F600   1.358       .  S
C585        C586   1.415       .  A
C586        F589   1.358       .  S
C587        C590   1.402       .  A
C587        C594   1.402       .  A
C590        C591   1.402       .  A
C590        F595   1.358       .  S
C591        C592   1.413       .  A
C591        F597   1.358       .  S
C592        C593   1.413       .  A
C593        C594   1.399       .  A
C593        F596   1.358       .  S
C594        F598   1.358       .  S
C601        C602   1.408       .  A
C601        C606   1.400       .  A
C601        F619   1.358       .  S
C602        C607   1.489       .  S
C602        C603   1.408       .  A
C603        C604   1.399       .  A
C603        F608   1.358       .  S
C604        C605   1.406       .  A
C604        F620   1.358       .  S
C605        C606   1.407       .  A
C606        F609   1.358       .  S
C607        C610   1.408       .  A
C607        C614   1.406       .  A
C610        C611   1.401       .  A
C610        F615   1.358       .  S
C611        C612   1.408       .  A
C611        F617   1.358       .  S
C612        C613   1.412       .  A
C613        C614   1.398       .  A
C613        F616   1.358       .  S
C614        F618   1.358       .  S
