geometry optimzed in LAMMPS
_audit_creation_date              2020-12-01 
_audit_creation_method            'lammps2cif' 
_symmetry_space_group_name_H-M    'P1' 
_symmetry_Int_Tables_number       1 
_symmetry_cell_setting            triclinic 
loop_ 
_symmetry_equiv_pos_as_xyz 
  x,y,z 
_cell_length_a                    31.34701795 
_cell_length_b                    31.52131299057732 
_cell_length_c                    31.344979291233198 
_cell_angle_alpha                 89.94279217286719 
_cell_angle_beta                  89.98951575189938 
_cell_angle_gamma                 90.11991025115044 
loop_ 
_atom_site_label 
_atom_site_type_symbol 
_atom_site_fract_x 
_atom_site_fract_y 
_atom_site_fract_z 
_atom_site_charge 
C1          C  0.11271089  0.85063172  0.53546307     0.04000
C2          C  0.08868966  0.84447678  0.49756845     0.04000
C3          C  0.11277578  0.85163981  0.45975736     0.04000
C4          C  0.14567819  0.88363960  0.46036583     0.04000
C5          C  0.15159538  0.90768410  0.49830603     0.04000
C6          C  0.14427563  0.88390586  0.53628969     0.04000
C7          C  0.14893530  0.06616110  0.45891565     0.04000
C8          C  0.15560789  0.04236614  0.49694523     0.04000
C9          C  0.14947603  0.06646247  0.53472543     0.04000
C10         C  0.11697645  0.09870217  0.53493106     0.04000
C11         C  0.09315631  0.10598482  0.49688333     0.04000
C12         C  0.11700080  0.09889470  0.45881596     0.04000
C13         C  0.90187388  0.06698327  0.53678633     0.04000
C14         C  0.93368691  0.10032697  0.53606815     0.04000
C15         C  0.95764607  0.10619725  0.49791141     0.04000
C16         C  0.93327794  0.09911529  0.46026204     0.04000
C17         C  0.90036568  0.06710044  0.46113036     0.04000
C18         C  0.89521497  0.04263235  0.49891000     0.04000
C19         C  0.92909131  0.84891931  0.46062657     0.04000
C20         C  0.95325245  0.84348392  0.49861588     0.04000
C21         C  0.92930329  0.85131905  0.53641728     0.04000
C22         C  0.89685309  0.88353181  0.53538645     0.04000
C23         C  0.89089364  0.90692404  0.49711792     0.04000
C24         C  0.89693845  0.88160790  0.45974707     0.04000
C25         C  0.56058689  0.06855654  0.12259094     0.04000
C26         C  0.56205805  0.10014357  0.08924397     0.04000
C27         C  0.52479908  0.10643611  0.06384809     0.04000
C28         C  0.48619361  0.09993502  0.08668851     0.04000
C29         C  0.48490698  0.06759607  0.11915322     0.04000
C30         C  0.52275630  0.04403634  0.12742161     0.04000
C31         C  0.48493998  0.09868023  0.90565393     0.04000
C32         C  0.52346924  0.10671049  0.92847938     0.04000
C33         C  0.56097360  0.10045833  0.90350410     0.04000
C34         C  0.56069964  0.06746316  0.87165813     0.04000
C35         C  0.52320262  0.04233855  0.86722922     0.04000
C36         C  0.48546579  0.06622904  0.87333587     0.04000
C37         C  0.56127126  0.85145568  0.08890636     0.04000
C38         C  0.56222017  0.88460744  0.12048320     0.04000
C39         C  0.52461999  0.90886826  0.12764079     0.04000
C40         C  0.48670877  0.88467412  0.12301363     0.04000
C41         C  0.48530739  0.85255418  0.09025416     0.04000
C42         C  0.52282073  0.84509135  0.06561991     0.04000
C43         C  0.48366068  0.88205710  0.87378324     0.04000
C44         C  0.52128687  0.90689824  0.86816737     0.04000
C45         C  0.55912393  0.88294605  0.87377794     0.04000
C46         C  0.56005545  0.85084943  0.90646531     0.04000
C47         C  0.52200482  0.84299819  0.93006501     0.04000
C48         C  0.48408191  0.84882543  0.90556823     0.04000
C49         C  0.14694471  0.51091416  0.90615527     0.04000
C50         C  0.11582616  0.51112778  0.87231870     0.04000
C51         C  0.09128830  0.47390362  0.86560686     0.04000
C52         C  0.11471564  0.43594102  0.87285123     0.04000
C53         C  0.14574614  0.43537605  0.90682310     0.04000
C54         C  0.15235645  0.47327929  0.93072607     0.04000
C55         C  0.15553898  0.47519864  0.06614978     0.04000
C56         C  0.14922532  0.43745052  0.09006060     0.04000
C57         C  0.11655878  0.43694106  0.12235389     0.04000
C58         C  0.09265841  0.47469288  0.12964206     0.04000
C59         C  0.11705604  0.51251885  0.12344470     0.04000
C60         C  0.14933227  0.51281439  0.09053487     0.04000
C61         C  0.93253282  0.51208217  0.12355364     0.04000
C62         C  0.95674146  0.47447794  0.12949923     0.04000
C63         C  0.93240674  0.43699890  0.12302273     0.04000
C64         C  0.90031277  0.43720456  0.08998982     0.04000
C65         C  0.89370733  0.47532822  0.06619008     0.04000
C66         C  0.90039791  0.51295529  0.09060378     0.04000
C67         C  0.93222531  0.51581840  0.87506282     0.04000
C68         C  0.95568613  0.47787694  0.86763185     0.04000
C69         C  0.93081175  0.44053438  0.87278236     0.04000
C70         C  0.89790426  0.44025315  0.90504422     0.04000
C71         C  0.89222152  0.47738147  0.93046127     0.04000
C72         C  0.89980997  0.51570298  0.90765194     0.04000
O73         O  0.25170155  0.89536555  0.65783247    -0.73600
O74         O  0.19679188  0.94252806  0.65070668    -0.52500
C75         C  0.21817474  0.91062563  0.63844020     0.80100
O76         O  0.24013955  0.92989036  0.88367692    -0.58200
O77         O  0.31085759  0.92702606  0.88137806    -0.51200
C78         C  0.27514565  0.91272404  0.89474189     0.72100
O79         O  0.13834684  0.91931689  0.78241813    -0.72800
O80         O  0.14274651  0.92852525  0.71147003    -0.53300
C81         C  0.12812448  0.90930062  0.74423841     0.78100
O82         O  0.36505403  0.89328374  0.76261041    -0.57900
O83         O  0.37323480  0.93467318  0.82198561    -0.51000
C84         C  0.38504987  0.90528672  0.79720808     0.74700
Zr85       Zr  0.29781933  0.91371864  0.72185700     2.54700
O86         O  0.29821202  0.83646496  0.72174443    -0.78500
O87         O  0.34917176  0.91289521  0.66358995    -0.91900
Zr88       Zr  0.20890491  0.92175876  0.81387476     2.64700
O89         O  0.22361905  0.84691957  0.80511370    -0.96800
O90         O  0.16018395  0.90901883  0.87273515    -0.78900
O91         O  0.22393002  0.91739870  0.74021742    -0.82300
O92         O  0.28222534  0.91541949  0.79622989    -2.17000
O93         O  0.37224071  0.05875590  0.75845705    -0.65700
O94         O  0.37630531  0.01841309  0.81907274    -0.50200
C95         C  0.39047941  0.04635417  0.79364599     0.73100
O96         O  0.15354099  0.06571665  0.77653678    -0.58600
O97         O  0.13488440  0.02642821  0.71884594    -0.50500
C98         C  0.12804883  0.05543902  0.74647327     0.74900
O99         O  0.24427861  0.02352135  0.88060385    -0.70000
O100        O  0.31406196  0.02624742  0.88485220    -0.48600
C101        C  0.27768999  0.03948411  0.89701705     0.76300
O102        O  0.26310220  0.05782670  0.65115955    -0.65300
O103        O  0.19663128  0.02806571  0.65495382    -0.52500
C104        C  0.22483762  0.05020307  0.63644429     0.74700
Zr105      Zr  0.30488835  0.04070122  0.71848906     2.77500
O106        O  0.31032543  0.11759427  0.71398637    -0.96000
O107        O  0.36071822  0.03190971  0.66521513    -0.76900
Zr108      Zr  0.21842767  0.04671473  0.81197697     2.70100
O109        O  0.24345347  0.11865094  0.82501718    -0.78100
O110        O  0.16280197  0.06609245  0.86166951    -0.97200
Zr111      Zr  0.19773378  0.98274894  0.71362319     2.21500
Zr112      Zr  0.31384076  0.97852515  0.82389317     2.11100
O113        O  0.29113837  0.04427167  0.79337199    -2.45900
O114        O  0.23144981  0.04621227  0.73751342    -0.77900
O115        O  0.33052076  0.97627350  0.74920726    -0.70100
O116        O  0.18187963  0.98628734  0.78686874    -2.31100
O117        O  0.27121794  0.97819896  0.69264275    -2.27300
O118        O  0.24133402  0.98262786  0.84194319    -0.71900
H119        H  0.29413171  0.89051369  0.80968163     0.80100
H120        H  0.15199260  0.98968000  0.79341986     0.81200
H121        H  0.30585556  0.06796025  0.80621665     0.83500
H122        H  0.27397419  0.97722892  0.66197028     0.81100
H123        H  0.14345378  0.93552835  0.87501949     0.44100
H124        H  0.13811905  0.04853737  0.85280742     0.43100
H125        H  0.24707791  0.13112567  0.79625064     0.42700
H126        H  0.31944445  0.12322601  0.68427265     0.40700
H127        H  0.34834854  0.01217677  0.64398421     0.43800
H128        H  0.36060088  0.88362787  0.66363396     0.38600
H129        H  0.26948695  0.82827638  0.71148548     0.44700
H130        H  0.22564836  0.83627004  0.83459056     0.41100
H131        H  0.28042519  0.12758636  0.71519830     0.46000
H132        H  0.37312375  0.93065751  0.67387115     0.44800
H133        H  0.19720574  0.83473030  0.79322279     0.44900
H134        H  0.17162120  0.05248052  0.88862205     0.45300
O135        O  0.10924249  0.20510722  0.65702515    -0.73600
O136        O  0.06205419  0.14980870  0.65084577    -0.52500
C137        C  0.09366625  0.17166421  0.63791644     0.80100
O138        O  0.09945923  0.18934459  0.87976856    -0.58200
O139        O  0.07317081  0.25609063  0.88769067    -0.51200
C140        C  0.09524615  0.22403886  0.90037071     0.72100
O141        O  0.07635519  0.08964544  0.78450665    -0.72800
O142        O  0.07159656  0.09352209  0.71348253    -0.53300
C143        C  0.08879459  0.07913101  0.74743506     0.78100
O144        O  0.10922392  0.31887452  0.76074802    -0.57900
O145        O  0.07910481  0.31937946  0.82712561    -0.51000
C146        C  0.10201899  0.33559195  0.79825709     0.74700
Zr147      Zr  0.09205854  0.24972137  0.72207451     2.54700
O148        O  0.16953028  0.24722763  0.72737700    -0.78500
O149        O  0.09546605  0.30142777  0.66443052    -0.91900
Zr150      Zr  0.08071943  0.16054324  0.81180505     2.64700
O151        O  0.15375079  0.15745109  0.78617529    -0.96800
O152        O  0.09394925  0.11343088  0.87144011    -0.78900
O153        O  0.08586133  0.17593439  0.73875631    -0.82300
O154        O  0.09045180  0.23348787  0.79635463    -2.17000
O155        O  0.94606139  0.32464417  0.76041897    -0.65700
O156        O  0.99087235  0.33088732  0.81790175    -0.50200
C157        C  0.96015708  0.34368000  0.79467734     0.73100
O158        O  0.93080502  0.11033696  0.77716631    -0.58600
O159        O  0.97058249  0.09024521  0.71982320    -0.50500
C160        C  0.94062959  0.08444152  0.74728731     0.74900
O161        O  0.97960667  0.20435617  0.87647385    -0.70000
O162        O  0.97880841  0.27297122  0.88310164    -0.48600
C163        C  0.96261241  0.23722170  0.89224280     0.76300
O164        O  0.94590374  0.21597171  0.65081161    -0.65300
O165        O  0.97614046  0.14999868  0.65280244    -0.52500
C166        C  0.95308337  0.17796138  0.63539433     0.74700
Zr167      Zr  0.96523474  0.25921753  0.71741068     2.77500
O168        O  0.88877321  0.26493712  0.70532850    -0.96000
O169        O  0.97753416  0.31427550  0.66420423    -0.76900
Zr170      Zr  0.95510454  0.17445115  0.81027953     2.70100
O171        O  0.88555514  0.20806225  0.80759815    -0.78100
O172        O  0.93571894  0.12392300  0.86511201    -0.97200
Zr173      Zr  0.01950391  0.15036349  0.71273433     2.21500
Zr174      Zr  0.02839581  0.26622284  0.82430231     2.11100
O175        O  0.96176502  0.24642635  0.79265481    -2.45900
O176        O  0.95747638  0.18638380  0.73596458    -0.77900
O177        O  0.03027383  0.28340427  0.74949261    -0.70100
O178        O  0.01415698  0.13594980  0.78602269    -2.31100
O179        O  0.02691861  0.22374112  0.69240567    -2.27300
O180        O  0.02067493  0.19404305  0.84092897    -0.71900
H181        H  0.11592558  0.24399347  0.81017450     0.80100
H182        H  0.00810816  0.10675355  0.79311181     0.81200
H183        H  0.93895037  0.26211919  0.80582543     0.83500
H184        H  0.02796906  0.22658397  0.66175263     0.81100
H185        H  0.06523213  0.10383190  0.88046102     0.44100
H186        H  0.94890727  0.09707299  0.85546161     0.43100
H187        H  0.87427934  0.20068773  0.77904594     0.42700
H188        H  0.87837707  0.23523667  0.70497504     0.40700
H189        H  0.95826400  0.33768007  0.67260224     0.43800
H190        H  0.07033135  0.29508277  0.64638116     0.38600
H191        H  0.17930102  0.23868664  0.69861772     0.44700
H192        H  0.16659588  0.18525641  0.79324831     0.41100
H193        H  0.87731915  0.27683339  0.73216990     0.46000
H194        H  0.12023323  0.29258811  0.64700649     0.44800
H195        H  0.16767552  0.13687368  0.80527723     0.44900
H196        H  0.95333522  0.13172624  0.89009755     0.45300
O197        O  0.10475118  0.74359945  0.33940793    -0.73600
O198        O  0.05850757  0.79935653  0.34574297    -0.52500
C199        C  0.08971212  0.77714908  0.35856095     0.80100
O200        O  0.06803922  0.75885221  0.11244195    -0.58200
O201        O  0.07203126  0.68848675  0.11375950    -0.51200
C202        C  0.08486078  0.72431214  0.09975623     0.72100
O203        O  0.07790802  0.85830378  0.21505423    -0.72800
O204        O  0.07207849  0.85354907  0.28595446    -0.53300
C205        C  0.09049914  0.86747880  0.25254416     0.78100
O206        O  0.10768490  0.63236389  0.23349999    -0.57900
O207        O  0.06698790  0.62546493  0.17345421    -0.51000
C208        C  0.09582689  0.61284888  0.19858473     0.74700
Zr209      Zr  0.08714408  0.69954574  0.27421001     2.54700
O210        O  0.16468814  0.70381053  0.27579562    -0.78500
O211        O  0.08865688  0.64728974  0.33145969    -0.91900
Zr212      Zr  0.07839990  0.78881865  0.18271199     2.64700
O213        O  0.15514184  0.78360818  0.18679225    -0.96800
O214        O  0.09617539  0.83908337  0.12698200    -0.78900
O215        O  0.08276315  0.77310268  0.25618566    -0.82300
O216        O  0.08641096  0.71574233  0.19990791    -2.17000
O217        O  0.94156541  0.62584518  0.23779441    -0.65700
O218        O  0.98176235  0.62235822  0.17689556    -0.50200
C219        C  0.95377385  0.60799448  0.20231624     0.73100
O220        O  0.93527753  0.84616045  0.21828666    -0.58600
O221        O  0.97208221  0.86198150  0.27863286    -0.50500
C222        C  0.94433063  0.87033093  0.24979556     0.74900
O223        O  0.97864884  0.75053498  0.11966960    -0.70000
O224        O  0.97624755  0.68161998  0.11184675    -0.48600
C225        C  0.96213003  0.71803058  0.10220131     0.76300
O226        O  0.93942896  0.73545568  0.34437935    -0.65300
O227        O  0.97339442  0.79972018  0.34352552    -0.52500
C228        C  0.94857745  0.77271255  0.36033338     0.74700
Zr229      Zr  0.95904761  0.69303396  0.27812788     2.77500
O230        O  0.88153273  0.68811677  0.27910236    -0.96000
O231        O  0.96612483  0.64134756  0.33541121    -0.76900
Zr232      Zr  0.95260650  0.77905190  0.18622823     2.70100
O233        O  0.88046453  0.75138607  0.18720681    -0.78100
O234        O  0.92247018  0.82566170  0.13351475    -0.97200
Zr235      Zr  0.01728564  0.79970135  0.28344154     2.21500
Zr236      Zr  0.02260837  0.68425328  0.17295639     2.11100
O237        O  0.95621802  0.70653774  0.20330295    -2.45900
O238        O  0.95348599  0.76630866  0.26038378    -0.77900
O239        O  0.02401065  0.66713051  0.24748033    -0.70100
O240        O  0.01337465  0.81601259  0.21010837    -2.31100
O241        O  0.02216813  0.72631193  0.30333833    -2.27300
O242        O  0.01699860  0.75673154  0.15507690    -0.71900
H243        H  0.11146723  0.70424359  0.18621502     0.80100
H244        H  0.00918486  0.84548337  0.20289932     0.81200
H245        H  0.93269036  0.69167602  0.19017056     0.83500
H246        H  0.02292390  0.72330439  0.33401026     0.81100
H247        H  0.07027248  0.85673634  0.12381774     0.44100
H248        H  0.89506375  0.83492243  0.14573078     0.43100
H249        H  0.86920868  0.75961851  0.21551476     0.42700
H250        H  0.87492848  0.66951089  0.30369363     0.40700
H251        H  0.93663936  0.63152184  0.34101859     0.43800
H252        H  0.09517486  0.62002490  0.31726941     0.38600
H253        H  0.17384057  0.69310091  0.24757425     0.44700
H254        H  0.16254762  0.76178437  0.16540338     0.41100
H255        H  0.87184616  0.71662115  0.28808910     0.46000
H256        H  0.05852240  0.64449571  0.34050863     0.44800
H257        H  0.16431613  0.81077004  0.17403062     0.44900
H258        H  0.94124131  0.85094119  0.13423423     0.45300
O259        O  0.24385822  0.86197673  0.05187199    -0.73600
O260        O  0.31440505  0.85628475  0.04488059    -0.52500
C261        C  0.28159854  0.87086546  0.06367814     0.80100
O262        O  0.25972035  0.63228674  0.07902729    -0.58200
O263        O  0.19369645  0.63209275  0.04828532    -0.51200
C264        C  0.22225621  0.61556860  0.07138908     0.72100
O265        O  0.36343013  0.74593648  0.08026725    -0.72800
O266        O  0.37148587  0.79999726  0.03206390    -0.53300
C267        C  0.38334926  0.77881113  0.06449075     0.78100
O268        O  0.14440007  0.76167770  0.07934962    -0.57900
O269        O  0.13327258  0.69755831  0.04774775    -0.51000
C270        C  0.12280954  0.72772921  0.07323835     0.74700
Zr271      Zr  0.20987822  0.79323897  0.05567786     2.54700
O272        O  0.22726505  0.79935791  0.13036453    -0.78500
O273        O  0.15180178  0.84442755  0.05783853    -0.91900
Zr274      Zr  0.29878772  0.70130217  0.06176640     2.64700
O275        O  0.29698816  0.69973800  0.13945194    -0.96800
O276        O  0.35633988  0.64951687  0.06126699    -0.78900
O277        O  0.28274180  0.77531068  0.05779217    -0.82300
O278        O  0.22512027  0.71974136  0.06297093    -2.17000
O279        O  0.13864475  0.75362471  0.94976010    -0.65700
O280        O  0.13605384  0.68396928  0.95175568    -0.50200
C281        C  0.12487077  0.71873109  0.93471427     0.73100
O282        O  0.36645857  0.73613875  0.91467727    -0.58600
O283        O  0.36526579  0.80238739  0.94416447    -0.50500
C284        C  0.38242610  0.77392960  0.92159009     0.74900
O285        O  0.25650790  0.62891529  0.91894924    -0.70000
O286        O  0.19738855  0.62551188  0.96177341    -0.48600
C287        C  0.22161192  0.61100054  0.93275777     0.76300
O288        O  0.23953086  0.85048361  0.91016937    -0.65300
O289        O  0.30157961  0.86348387  0.94578250    -0.52500
C290        C  0.27243054  0.87326333  0.91872405     0.74700
Zr291      Zr  0.20709830  0.78373352  0.93067404     2.77500
O292        O  0.20306724  0.76450690  0.85615043    -0.96000
O293        O  0.15310829  0.83796617  0.92365021    -0.76900
Zr294      Zr  0.29853034  0.69560599  0.93409514     2.70100
O295        O  0.29738233  0.69238499  0.85654436    -0.78100
O296        O  0.35314026  0.64083336  0.93579225    -0.97200
Zr297      Zr  0.30828622  0.80148405  0.99145108     2.21500
Zr298      Zr  0.19483703  0.68898521  0.00105207     2.11100
O299        O  0.22397533  0.71096951  0.93413075    -2.45900
O300        O  0.28121804  0.76890522  0.92896658    -0.77900
O301        O  0.17789134  0.76125052  0.99610486    -0.70100
O302        O  0.32723526  0.72776934  0.99619966    -2.31100
O303        O  0.23534761  0.81878898  0.98974527    -2.27300
O304        O  0.26891963  0.67006170  0.99974720    -0.71900
H305        H  0.21188037  0.70859175  0.08849391     0.80100
H306        H  0.35781542  0.72418005  0.99630214     0.81200
H307        H  0.21021198  0.69592603  0.91118968     0.83500
H308        H  0.22859268  0.84826245  0.98503014     0.81100
H309        H  0.37957844  0.66268059  0.07808086     0.44100
H310        H  0.34438740  0.62186965  0.95943143     0.43100
H311        H  0.29502615  0.72235952  0.84739011     0.42700
H312        H  0.19205440  0.73513248  0.85494122     0.40700
H313        H  0.14636347  0.84627131  0.95334476     0.43800
H314        H  0.12879088  0.83170263  0.04033946     0.38600
H315        H  0.24449381  0.77390123  0.13682572     0.44700
H316        H  0.26628859  0.69967038  0.14688202     0.41100
H317        H  0.17908044  0.78208389  0.84649051     0.46000
H318        H  0.16182518  0.86870173  0.04044625     0.44800
H319        H  0.30684754  0.67088167  0.14703924     0.44900
H320        H  0.34810174  0.62395108  0.90963420     0.45300
O321        O  0.10050947  0.09396818  0.20704466    -0.73600
O322        O  0.07216754  0.08398815  0.27304913    -0.52500
C323        C  0.09615754  0.07306824  0.24169124     0.80100
O324        O  0.10819382  0.31397960  0.22790210    -0.58200
O325        O  0.06377071  0.32134005  0.17042344    -0.51200
C326        C  0.09405955  0.33384295  0.19418527     0.72100
O327        O  0.10872343  0.20503271  0.33549211    -0.72800
O328        O  0.07116674  0.14285262  0.33806383    -0.53300
C329        C  0.09788971  0.16901850  0.35323268     0.78100
O330        O  0.06130273  0.19297076  0.10816220    -0.57900
O331        O  0.06530236  0.26267016  0.10691817    -0.51000
C332        C  0.07923859  0.22682288  0.09505575     0.74700
Zr333      Zr  0.07981510  0.15927593  0.17505866     2.54700
O334        O  0.15476439  0.17341079  0.16575711    -0.78500
O335        O  0.08344682  0.10155915  0.12358389    -0.91900
Zr336      Zr  0.09029537  0.24655125  0.26821820     2.64700
O337        O  0.16780824  0.24326380  0.26532583    -0.96800
O338        O  0.09424274  0.29893744  0.32513164    -0.78900
O339        O  0.08783722  0.17335061  0.24901896    -0.82300
O340        O  0.08574656  0.23187495  0.19345014    -2.17000
O341        O  0.93676593  0.19134359  0.11744897    -0.65700
O342        O  0.97160886  0.25402667  0.10710160    -0.50200
C343        C  0.94543167  0.22455301  0.09570415     0.73100
O344        O  0.94412145  0.20770934  0.34026374    -0.58600
O345        O  0.98460509  0.14730443  0.34279249    -0.50500
C346        C  0.95648118  0.17216283  0.35774068     0.74900
O347        O  0.94379722  0.31954886  0.23518829    -0.70000
O348        O  0.97809301  0.32180638  0.17083295    -0.48600
C349        C  0.95304319  0.33708780  0.19845864     0.76300
O350        O  0.92546118  0.11055613  0.23016079    -0.65300
O351        O  0.97160161  0.08878585  0.28155876    -0.52500
C352        C  0.93589832  0.08698575  0.26157252     0.74700
Zr353      Zr  0.95622559  0.16319228  0.18525769     2.77500
O354        O  0.88043504  0.17501309  0.18809435    -0.96000
O355        O  0.96484065  0.10313152  0.13742717    -0.76900
Zr356      Zr  0.96292990  0.25175437  0.27525475     2.70100
O357        O  0.88547459  0.25525413  0.27966080    -0.78100
O358        O  0.97137304  0.30396992  0.33175215    -0.97200
Zr359      Zr  0.02487520  0.14512848  0.27962855     2.21500
Zr360      Zr  0.01987190  0.26104713  0.16829703     2.11100
O361        O  0.95702591  0.23634923  0.20123744    -2.45900
O362        O  0.96079343  0.17830027  0.25828243    -0.77900
O363        O  0.01630216  0.18926501  0.14999692    -0.70100
O364        O  0.02713678  0.21885324  0.29950450    -2.31100
O365        O  0.01893996  0.12867348  0.20720912    -2.27300
O366        O  0.02598565  0.27828146  0.24261997    -0.71900
H367        H  0.10972642  0.24446335  0.17881075     0.80100
H368        H  0.02869572  0.22193198  0.33009656     0.81200
H369        H  0.93244151  0.25015750  0.18908536     0.83500
H370        H  0.01710333  0.09842165  0.20257168     0.81100
H371        H  0.11861690  0.31736794  0.31725675     0.44100
H372        H  0.98948139  0.32640664  0.31897886     0.43100
H373        H  0.87566174  0.25442097  0.24964990     0.42700
H374        H  0.87444876  0.17676839  0.21905925     0.40700
H375        H  0.98593989  0.11275318  0.11596560     0.43800
H376        H  0.07060887  0.11283872  0.09707412     0.38600
H377        H  0.16440219  0.18264863  0.19436110     0.44700
H378        H  0.17742189  0.25896107  0.29094141     0.41100
H379        H  0.87679518  0.20458998  0.17820296     0.46000
H380        H  0.06251869  0.08025320  0.13375807     0.44800
H381        H  0.17467241  0.21325366  0.27162286     0.44900
H382        H  0.94286133  0.31716343  0.33445834     0.45300
O383        O  0.15700408  0.87609993  0.22691948    -0.73600
O384        O  0.13610114  0.92224649  0.27875407    -0.52500
C385        C  0.13046319  0.88993703  0.25438679     0.80100
O386        O  0.37458533  0.89764203  0.24033873    -0.58200
O387        O  0.37485534  0.93149489  0.17568901    -0.51200
C388        C  0.39112017  0.90689740  0.20313883     0.72100
O389        O  0.26114247  0.89527980  0.34574119    -0.72800
O390        O  0.19717579  0.93038740  0.34507122    -0.53300
C391        C  0.22364413  0.90479084  0.36147822     0.78100
O392        O  0.25518642  0.88038743  0.12917211    -0.57900
O393        O  0.30989048  0.92370525  0.11023419    -0.51000
C394        C  0.28390761  0.89306621  0.10351231     0.74700
Zr395      Zr  0.22096530  0.89841600  0.19347389     2.54700
O396        O  0.23772767  0.82500372  0.21080892    -0.78500
O397        O  0.16885992  0.88589875  0.13765783    -0.91900
Zr398      Zr  0.30724615  0.91592500  0.28188320     2.64700
O399        O  0.31838256  0.84028973  0.29299261    -0.96800
O400        O  0.35880445  0.93390964  0.33709751    -0.78900
O401        O  0.23359965  0.90737691  0.26633386    -0.82300
O402        O  0.29348599  0.90625226  0.20796033    -2.17000
O403        O  0.23972068  0.01322191  0.10831235    -0.65700
O404        O  0.31022203  0.01837261  0.11201473    -0.50200
C405        C  0.27457456  0.03132250  0.09757901     0.73100
O406        O  0.25402600  0.05996291  0.33528559    -0.58600
O407        O  0.19642690  0.01576138  0.34235681    -0.50500
C408        C  0.22024744  0.04579154  0.35509823     0.74900
O409        O  0.36197974  0.06062625  0.22617650    -0.70000
O410        O  0.37145582  0.01420862  0.17101315    -0.48600
C411        C  0.38265055  0.04591394  0.19312713     0.76300
O412        O  0.13463044  0.02140579  0.20702559    -0.65300
O413        O  0.13880004  0.02184091  0.27832600    -0.52500
C414        C  0.12328536  0.03572105  0.24327773     0.74700
Zr415      Zr  0.20564338  0.02267161  0.17714188     2.77500
O416        O  0.20612687  0.09947642  0.17660337    -0.96000
O417        O  0.14971552  0.03212236  0.12438499    -0.76900
Zr418      Zr  0.29497198  0.04182390  0.26810113     2.70100
O419        O  0.28791123  0.11821503  0.25865174    -0.78100
O420        O  0.34786470  0.05094209  0.32422563    -0.97200
Zr421      Zr  0.19668473  0.97080901  0.28286376     2.21500
Zr422      Zr  0.31183766  0.97000602  0.17181087     2.11100
O423        O  0.27856963  0.03402968  0.19435280    -2.45900
O424        O  0.22098600  0.03448040  0.25028738    -0.77900
O425        O  0.23972041  0.95981537  0.15463062    -0.70100
O426        O  0.27051869  0.97871886  0.30216750    -2.31100
O427        O  0.18212597  0.95953512  0.21044092    -2.27300
O428        O  0.32973874  0.97870920  0.24560077    -0.71900
H429        H  0.30840761  0.88190579  0.19672508     0.80100
H430        H  0.27348674  0.98145347  0.33268093     0.81200
H431        H  0.28989658  0.05814393  0.17906818     0.83500
H432        H  0.15275547  0.95287864  0.20417419     0.81100
H433        H  0.34183541  0.94803775  0.35960018     0.44100
H434        H  0.37560942  0.04514933  0.31033504     0.43100
H435        H  0.27154141  0.12790123  0.28381510     0.42700
H436        H  0.19246880  0.10706468  0.20401815     0.40700
H437        H  0.14953128  0.00529302  0.10800087     0.43800
H438        H  0.17894747  0.90329522  0.11333627     0.38600
H439        H  0.23428805  0.82302497  0.24213922     0.44700
H440        H  0.32963064  0.82960228  0.26551500     0.41100
H441        H  0.23638259  0.10728007  0.18073563     0.46000
H442        H  0.14320749  0.90126374  0.14755576     0.44800
H443        H  0.34287971  0.83872694  0.31285513     0.44900
H444        H  0.34817734  0.08184159  0.32984112     0.45300
O445        O  0.36848916  0.21082635  0.07795237    -0.73600
O446        O  0.36609851  0.14642196  0.04419265    -0.52500
C447        C  0.38398923  0.17369019  0.06804349     0.80100
O448        O  0.14126368  0.19033787  0.08211138    -0.58200
O449        O  0.13217989  0.25402916  0.04924614    -0.51200
C450        C  0.11974890  0.22366432  0.07343402     0.72100
O451        O  0.23979668  0.09421707  0.08586999    -0.72800
O452        O  0.30030181  0.08267314  0.04770495    -0.53300
C453        C  0.27179524  0.07162131  0.07506985     0.78100
O454        O  0.26021916  0.31947246  0.08087968    -0.57900
O455        O  0.19667441  0.32098214  0.04507798    -0.51000
C456        C  0.22383175  0.33679467  0.07042630     0.74700
Zr457      Zr  0.30085021  0.25201963  0.06296533     2.54700
O458        O  0.30741767  0.25408875  0.14033568    -0.78500
O459        O  0.35380893  0.30816077  0.05579037    -0.91900
Zr460      Zr  0.21227337  0.16371257  0.07186514     2.64700
O461        O  0.23496495  0.17947622  0.14481453    -0.96800
O462        O  0.16258848  0.11183147  0.09831912    -0.78900
O463        O  0.28549259  0.17783935  0.06701064    -0.82300
O464        O  0.22649012  0.23708686  0.06898452    -2.17000
O465        O  0.25229478  0.31322719  0.91776133    -0.65700
O466        O  0.19442513  0.32015745  0.96166007    -0.50200
C467        C  0.21824129  0.33284368  0.93154869     0.73100
O468        O  0.23676566  0.09560013  0.92041973    -0.58600
O469        O  0.30174705  0.08665091  0.95139301    -0.50500
C470        C  0.27219426  0.07589982  0.92520990     0.74900
O471        O  0.13138112  0.19037165  0.95614715    -0.70000
O472        O  0.13557159  0.26043602  0.95373447    -0.48600
C473        C  0.12034388  0.22565864  0.93966950     0.76300
O474        O  0.36061593  0.20353668  0.91654759    -0.65300
O475        O  0.36511754  0.14381553  0.95776704    -0.52500
C476        C  0.37920575  0.16848905  0.92900204     0.74700
Zr477      Zr  0.29430390  0.24642699  0.93556600     2.77500
O478        O  0.29657803  0.24803229  0.85797547    -0.96000
O479        O  0.34974028  0.30057167  0.93807374    -0.76900
Zr480      Zr  0.20074039  0.15817297  0.94573196     2.70100
O481        O  0.18601315  0.17164284  0.87143549    -0.78100
O482        O  0.14915074  0.10027278  0.94674618    -0.97200
Zr483      Zr  0.30457027  0.14514553  0.00169734     2.21500
Zr484      Zr  0.19423420  0.25933558  0.00413557     2.11100
O485        O  0.21983104  0.23050219  0.93887523    -2.45900
O486        O  0.27462712  0.17315994  0.93822090    -0.77900
O487        O  0.26823362  0.27760040  0.99951504    -0.70100
O488        O  0.23178083  0.12935464  0.00764638    -2.31100
O489        O  0.32491749  0.21877169  0.99890619    -2.27300
O490        O  0.17649477  0.18727089  0.01014573    -0.71900
H491        H  0.21363629  0.25143020  0.09294189     0.80100
H492        H  0.22617553  0.09922090  0.00817238     0.81200
H493        H  0.20555272  0.24301609  0.91467086     0.83500
H494        H  0.35553232  0.22174886  0.99714938     0.81100
H495        H  0.15120608  0.09872025  0.07194350     0.44100
H496        H  0.16318910  0.07743061  0.96324188     0.43100
H497        H  0.21108322  0.18784139  0.86115428     0.42700
H498        H  0.29942374  0.21790310  0.84955164     0.40700
H499        H  0.34211031  0.32073205  0.91508305     0.43800
H500        H  0.33901747  0.33088952  0.03976268     0.38600
H501        H  0.31502513  0.28388746  0.14681692     0.44700
H502        H  0.23271815  0.21047862  0.14889967     0.41100
H503        H  0.26724362  0.25580583  0.84933048     0.46000
H504        H  0.37491320  0.29674497  0.03534188     0.44800
H505        H  0.26592092  0.17347321  0.14585249     0.44900
H506        H  0.12581352  0.10991699  0.96565443     0.45300
O507        O  0.86423013  0.06929223  0.26606535    -0.73600
O508        O  0.90929403  0.02120615  0.28940178    -0.52500
C509        C  0.90229644  0.05798343  0.27430218     0.80100
O510        O  0.67251828  0.05606886  0.24034760    -0.58200
O511        O  0.67383491  0.02309604  0.17535445    -0.51200
C512        C  0.65704310  0.04766850  0.20251251     0.72100
O513        O  0.78281695  0.05590968  0.34872985    -0.72800
O514        O  0.84483477  0.01749612  0.35151336    -0.53300
C515        C  0.81937480  0.04519857  0.36588093     0.78100
O516        O  0.79900561  0.06805118  0.13231417    -0.57900
O517        O  0.74085071  0.02913042  0.11342821    -0.51000
C518        C  0.76918243  0.05775496  0.10653513     0.74700
Zr519      Zr  0.82870253  0.05107352  0.20013265     2.54700
O520        O  0.81338633  0.12622905  0.20177215    -0.78500
O521        O  0.89430169  0.06285443  0.16114062    -0.91900
Zr522      Zr  0.73743247  0.03495711  0.28447697     2.64700
O523        O  0.72656254  0.11032687  0.29723051    -0.96800
O524        O  0.68221566  0.01806844  0.33643359    -0.78900
O525        O  0.81158175  0.04052850  0.27181269    -0.82300
O526        O  0.75493179  0.04471797  0.21110802    -2.17000
O527        O  0.80855791  0.93652252  0.11351884    -0.65700
O528        O  0.73791765  0.93323887  0.11425117    -0.50200
C529        C  0.77376705  0.91968005  0.10083501     0.73100
O530        O  0.78865405  0.88632911  0.33835852    -0.58600
O531        O  0.84506687  0.93117942  0.34899246    -0.50500
C532        C  0.82182815  0.90000444  0.35956313     0.74900
O533        O  0.68210316  0.89096658  0.22914194    -0.70000
O534        O  0.67559461  0.93700009  0.17304877    -0.48600
C535        C  0.66302243  0.90579314  0.19537221     0.76300
O536        O  0.91016096  0.92367265  0.21343225    -0.65300
O537        O  0.90333737  0.92345455  0.28478385    -0.52500
C538        C  0.91961988  0.90917961  0.25018846     0.74700
Zr539      Zr  0.83946414  0.92616307  0.18370759     2.77500
O540        O  0.83483548  0.84980188  0.19256006    -0.96000
O541        O  0.88943874  0.91254999  0.12620181    -0.76900
Zr542      Zr  0.74749499  0.90904343  0.27233119     2.70100
O543        O  0.74814064  0.83184102  0.26853359    -0.78100
O544        O  0.69179248  0.90724355  0.32646167    -0.97200
Zr545      Zr  0.84682880  0.97612686  0.29008153     2.21500
Zr546      Zr  0.73535725  0.98166046  0.17431319     2.11100
O547        O  0.76586674  0.91678307  0.19851175    -2.45900
O548        O  0.82173587  0.91401607  0.25620775    -0.77900
O549        O  0.80844454  0.99031837  0.16089287    -0.70100
O550        O  0.77205130  0.97126553  0.30733394    -2.31100
O551        O  0.86504284  0.98819099  0.21797915    -2.27300
O552        O  0.71493180  0.97282922  0.24756897    -0.71900
H553        H  0.74120158  0.06949582  0.19937223     0.80100
H554        H  0.76809469  0.96843240  0.33780840     0.81200
H555        H  0.75463779  0.89296736  0.18274002     0.83500
H556        H  0.89506220  0.99355890  0.21412067     0.81100
H557        H  0.68835410  0.03696061  0.36089065     0.44100
H558        H  0.68398596  0.87688696  0.32882608     0.43100
H559        H  0.73548320  0.82494139  0.24043866     0.42700
H560        H  0.80586083  0.84404862  0.20358051     0.40700
H561        H  0.89761810  0.94106717  0.11567421     0.43800
H562        H  0.89207789  0.04258980  0.13714631     0.38600
H563        H  0.79682918  0.13033514  0.22832974     0.44700
H564        H  0.72642010  0.12330679  0.26844874     0.41100
H565        H  0.85353693  0.84335497  0.21712513     0.46000
H566        H  0.91727283  0.05071948  0.17892370     0.44800
H567        H  0.69664827  0.11248216  0.30710240     0.44900
H568        H  0.70657375  0.91375060  0.35360220     0.45300
O569        O  0.80874046  0.09125654  0.05512847    -0.73600
O570        O  0.73773123  0.09520311  0.04828545    -0.52500
C571        C  0.77115672  0.08142064  0.06700609     0.80100
O572        O  0.79257858  0.31624284  0.07814195    -0.58200
O573        O  0.84862099  0.32465545  0.03214282    -0.51200
C574        C  0.82600265  0.33637539  0.06352472     0.72100
O575        O  0.68382166  0.20769331  0.07851947    -0.72800
O576        O  0.67749351  0.14941800  0.03545054    -0.53300
C577        C  0.66465725  0.17317810  0.06545769     0.78100
O578        O  0.90876030  0.19337504  0.03857075    -0.57900
O579        O  0.91003420  0.26330394  0.04102918    -0.51000
C580        C  0.92188240  0.22765455  0.05581390     0.74700
Zr581      Zr  0.83988452  0.16137090  0.05395682     2.54700
O582        O  0.82371382  0.17700550  0.12756097    -0.78500
O583        O  0.89251222  0.11496688  0.08627730    -0.91900
Zr584      Zr  0.74948981  0.25086432  0.05844252     2.64700
O585        O  0.74766303  0.24942974  0.13609072    -0.96800
O586        O  0.69632387  0.30699934  0.05632059    -0.78900
O587        O  0.76644765  0.17734228  0.05662016    -0.82300
O588        O  0.82384938  0.23471854  0.05701824    -2.17000
O589        O  0.90137822  0.19896972  0.90635821    -0.65700
O590        O  0.91237819  0.25969965  0.94402627    -0.50200
C591        C  0.92299239  0.23221478  0.91584195     0.73100
O592        O  0.67978774  0.21135872  0.91155638    -0.58600
O593        O  0.67844844  0.14882984  0.94869647    -0.50500
C594        C  0.66283740  0.17491937  0.92219150     0.74900
O595        O  0.78610771  0.32253149  0.91467983    -0.70000
O596        O  0.85138128  0.32204200  0.94718960    -0.48600
C597        C  0.82346126  0.33886396  0.92343375     0.76300
O598        O  0.80288993  0.09970920  0.90842004    -0.65300
O599        O  0.74235151  0.08695432  0.94633007    -0.52500
C600        C  0.77018480  0.07733169  0.91788653     0.74700
Zr601      Zr  0.83672493  0.16455301  0.92927090     2.77500
O602        O  0.82814089  0.15763903  0.85404147    -0.96000
O603        O  0.89163100  0.11104032  0.93929480    -0.76900
Zr604      Zr  0.74588285  0.25418091  0.93076234     2.70100
O605        O  0.74440282  0.25907739  0.85332103    -0.78100
O606        O  0.69029266  0.30785429  0.93605908    -0.97200
Zr607      Zr  0.73864626  0.14880368  0.99257444     2.21500
Zr608      Zr  0.85124190  0.26254557  0.99137670     2.11100
O609        O  0.81995147  0.23744475  0.92734294    -2.45900
O610        O  0.76328466  0.18063967  0.92880383    -0.77900
O611        O  0.86958188  0.19031568  0.99104582    -0.70100
O612        O  0.71936171  0.22267115  0.99462740    -2.31100
O613        O  0.81148389  0.13125188  0.99070242    -2.27300
O614        O  0.77722550  0.28097381  0.99439077    -0.71900
H615        H  0.83791212  0.24731788  0.08133217     0.80100
H616        H  0.68870976  0.22599348  0.99544530     0.81200
H617        H  0.83271638  0.25047682  0.90248052     0.83500
H618        H  0.81730630  0.10153111  0.98615160     0.81100
H619        H  0.66946703  0.29318139  0.06550273     0.44100
H620        H  0.66318479  0.29222035  0.93198541     0.43100
H621        H  0.75505968  0.23123454  0.84343261     0.42700
H622        H  0.82203038  0.18678019  0.84412205     0.40700
H623        H  0.90708228  0.11957885  0.96545887     0.43800
H624        H  0.91879543  0.12006606  0.06954420     0.38600
H625        H  0.79461596  0.16561810  0.13208967     0.44700
H626        H  0.77765060  0.25406321  0.14486970     0.41100
H627        H  0.85733402  0.15063343  0.84478085     0.46000
H628        H  0.88397329  0.08604992  0.07752720     0.44800
H629        H  0.73285427  0.27596045  0.14410608     0.44900
H630        H  0.69015138  0.31598694  0.96655482     0.45300
O631        O  0.11698815  0.84298437  0.76824351    -0.73600
O632        O  0.07257200  0.86441260  0.71541286    -0.52500
C633        C  0.10425576  0.86994482  0.74088261     0.80100
O634        O  0.10376372  0.62625060  0.75782657    -0.58200
O635        O  0.06867710  0.62562676  0.82186757    -0.51200
C636        C  0.09438129  0.60978573  0.79505149     0.72100
O637        O  0.10316240  0.73603995  0.64976838    -0.72800
O638        O  0.06863592  0.80011132  0.65005307    -0.53300
C639        C  0.09385388  0.77322578  0.63378338     0.78100
O640        O  0.11217337  0.75147386  0.87109605    -0.57900
O641        O  0.07432389  0.69158171  0.88513759    -0.51000
C642        C  0.10190270  0.72013116  0.89471224     0.74700
Zr643      Zr  0.09659228  0.77864479  0.80186443     2.54700
O644        O  0.16723508  0.75828957  0.77581687    -0.78500
O645        O  0.11559762  0.83325581  0.85192045    -0.91900
Zr646      Zr  0.08296900  0.69170286  0.71445391     2.64700
O647        O  0.15843004  0.67996786  0.70047584    -0.96800
O648        O  0.06474568  0.63933025  0.66036217    -0.78900
O649        O  0.09000651  0.76559967  0.72904499    -0.82300
O650        O  0.09188299  0.70611839  0.78855098    -2.17000
O651        O  0.98359043  0.75979400  0.88537638    -0.65700
O652        O  0.97882804  0.68963859  0.88398647    -0.50200
C653        C  0.96629858  0.72541523  0.89818431     0.71900
O654        O  0.93612803  0.74566048  0.65953676    -0.58600
O655        O  0.98188980  0.80175480  0.65105791    -0.50500
C656        C  0.95051482  0.77908134  0.63940365     0.74900
O657        O  0.93762431  0.63571696  0.76612805    -0.70000
O658        O  0.98335258  0.62751068  0.82238803    -0.48600
C659        C  0.95224728  0.61562837  0.79948563     0.76300
O660        O  0.96941319  0.86151604  0.78665549    -0.65300
O661        O  0.97313037  0.85785534  0.71508951    -0.52500
C662        C  0.95685779  0.87258436  0.74947500     0.74700
Zr663      Zr  0.97194359  0.79022778  0.81533967     2.77500
O664        O  0.89651139  0.77865523  0.80337478    -0.96000
O665        O  0.94969494  0.83727200  0.87211171    -0.76900
Zr666      Zr  0.95627266  0.70245277  0.72491088     2.70100
O667        O  0.87897987  0.70762009  0.73093564    -0.78100
O668        O  0.94994516  0.64865578  0.66958217    -0.97200
Zr669      Zr  0.02624081  0.80178371  0.71103532     2.21500
Zr670      Zr  0.02741622  0.68725866  0.82367348     2.11100
O671        O  0.96226754  0.71757990  0.79932870    -2.45900
O672        O  0.96212714  0.77607570  0.74212405    -0.77900
O673        O  0.03411317  0.75756328  0.83069691    -0.70100
O674        O  0.01989524  0.72779119  0.69213651    -2.31100
O675        O  0.03496454  0.81661426  0.78373021    -2.27300
O676        O  0.01969713  0.66878136  0.74978107    -0.71900
H677        H  0.11661442  0.69234349  0.80061845     0.80100
H678        H  0.01750731  0.72466906  0.66156364     0.81200
H679        H  0.93820082  0.70577144  0.81449045     0.83500
H680        H  0.04009189  0.84607337  0.79019689     0.81100
H681        H  0.08547599  0.61608445  0.66478051     0.44100
H682        H  0.96179630  0.66221143  0.64364345     0.43100
H683        H  0.87284406  0.70165017  0.76134476     0.42700
H684        H  0.88831315  0.75862149  0.82619754     0.40700
H685        H  0.97545451  0.85411255  0.87902521     0.43800
H686        H  0.09470796  0.85635197  0.84734620     0.38600
H687        H  0.17161861  0.77442495  0.74904087     0.44700
H688        H  0.17164185  0.67786734  0.72908285     0.41100
H689        H  0.88318652  0.80600232  0.81090201     0.46000
H690        H  0.14277835  0.84430457  0.84071908     0.44800
H691        H  0.15989451  0.65080772  0.68885084     0.44900
H692        H  0.97130958  0.62692305  0.67747086     0.45300
O693        O  0.78992207  0.05680155  0.65452633    -0.73600
O694        O  0.84816953  0.01317802  0.65031886    -0.52500
C695        C  0.82500006  0.04327308  0.63660350     0.80100
O696        O  0.80112249  0.02180688  0.88038469    -0.58200
O697        O  0.73054750  0.02497559  0.87991694    -0.51200
C698        C  0.76648826  0.03868506  0.89300887     0.72100
O699        O  0.90387146  0.03465818  0.78605850    -0.72800
O700        O  0.90192877  0.02702601  0.71490814    -0.53300
C701        C  0.91538320  0.04566905  0.74869059     0.78100
O702        O  0.67752300  0.05921205  0.75906631    -0.57900
O703        O  0.66898807  0.01721225  0.81805887    -0.51000
C704        C  0.65730377  0.04675326  0.79333750     0.74700
Zr705      Zr  0.74426139  0.03762827  0.71861704     2.54700
O706        O  0.74452343  0.11472235  0.71336161    -0.78500
O707        O  0.69027275  0.03170142  0.66314149    -0.91900
Zr708      Zr  0.83147320  0.03327707  0.81038043     2.64700
O709        O  0.81487203  0.10270894  0.78098842    -0.96800
O710        O  0.87159170  0.07105841  0.86359714    -0.78900
O711        O  0.81805629  0.03539724  0.73686863    -0.82300
O712        O  0.75821757  0.03790026  0.79351619    -2.17000
O713        O  0.67272416  0.89246134  0.75850368    -0.65700
O714        O  0.66742907  0.93304628  0.81881332    -0.50200
C715        C  0.65405727  0.90453965  0.79369411     0.73100
O716        O  0.89328087  0.88943798  0.77999080    -0.58600
O717        O  0.91006400  0.92514349  0.71921926    -0.50500
C718        C  0.91804993  0.89791100  0.74874491     0.74900
O719        O  0.79952828  0.92949789  0.87909442    -0.70000
O720        O  0.72946924  0.92771408  0.88393934    -0.48600
C721        C  0.76583066  0.91425768  0.89590237     0.76300
O722        O  0.78366807  0.89224510  0.65184889    -0.65300
O723        O  0.84757367  0.92767330  0.65184163    -0.52500
C724        C  0.82075594  0.90224474  0.63556730     0.74700
Zr725      Zr  0.74001563  0.91092205  0.71745545     2.77500
O726        O  0.73501002  0.83394800  0.71397264    -0.96000
O727        O  0.68659372  0.91597473  0.66132471    -0.76900
Zr728      Zr  0.82559618  0.90763517  0.80984489     2.70100
O729        O  0.79894234  0.83534995  0.80792054    -0.78100
O730        O  0.87833588  0.87940624  0.85768924    -0.97200
Zr731      Zr  0.84765188  0.97102489  0.71210535     2.21500
Zr732      Zr  0.72893923  0.97417171  0.82205699     2.11100
O733        O  0.75278383  0.90856095  0.79244009    -2.45900
O734        O  0.81386249  0.90761826  0.73566865    -0.77900
O735        O  0.71273476  0.97499096  0.74715643    -0.70100
O736        O  0.86152325  0.96870142  0.78555355    -2.31100
O737        O  0.77359648  0.97356056  0.69119877    -2.27300
O738        O  0.80174258  0.97150787  0.84000480    -0.71900
H739        H  0.74549421  0.06236779  0.80689857     0.80100
H740        H  0.89119050  0.96516747  0.79294873     0.81200
H741        H  0.73832202  0.88496895  0.80578260     0.83500
H742        H  0.77106149  0.97400799  0.66050048     0.81100
H743        H  0.88600753  0.04834946  0.87997980     0.44100
H744        H  0.87784498  0.89902220  0.88230858     0.43100
H745        H  0.80935538  0.82399031  0.78038712     0.42700
H746        H  0.73349251  0.82466849  0.74411730     0.40700
H747        H  0.68773181  0.94593906  0.65196435     0.43800
H748        H  0.70663986  0.02816373  0.63636836     0.38600
H749        H  0.73649992  0.12469131  0.74219945     0.44700
H750        H  0.79481234  0.11643951  0.80090914     0.41100
H751        H  0.70609425  0.82833787  0.70254409     0.46000
H752        H  0.67791722  0.06050252  0.66104919     0.44800
H753        H  0.84169132  0.11922893  0.78192269     0.44900
H754        H  0.86582082  0.85261972  0.86802104     0.45300
O755        O  0.68233306  0.74270964  0.08118287    -0.73600
O756        O  0.68040043  0.80586752  0.04504680    -0.52500
C757        C  0.66470001  0.77887768  0.07068206     0.80100
O758        O  0.90372279  0.75778748  0.08514179    -0.58200
O759        O  0.91447155  0.69662188  0.04806677    -0.51200
C760        C  0.92461918  0.72409713  0.07641341     0.72100
O761        O  0.81103626  0.85970863  0.08335020    -0.72800
O762        O  0.74722754  0.86901933  0.04992100    -0.53300
C763        C  0.77704498  0.88070544  0.07580444     0.78100
O764        O  0.79275871  0.63494262  0.07960171    -0.57900
O765        O  0.85489498  0.63324224  0.04125051    -0.51000
C766        C  0.82889408  0.61756177  0.06804791     0.74700
Zr767      Zr  0.75048772  0.70227376  0.06340956     2.54700
O768        O  0.75079983  0.70095027  0.14108752    -0.78500
O769        O  0.69587002  0.64735313  0.06122801    -0.91900
Zr770      Zr  0.83946287  0.79245351  0.06371946     2.64700
O771        O  0.82143741  0.78665092  0.13854027    -0.96800
O772        O  0.89263865  0.84862233  0.05977641    -0.78900
O773        O  0.76606897  0.77647594  0.06504526    -0.82300
O774        O  0.82455839  0.71916877  0.06384482    -2.17000
O775        O  0.79205180  0.63697693  0.91859072    -0.65700
O776        O  0.85489798  0.63466290  0.95559242    -0.50200
C777        C  0.82826560  0.61937660  0.92932753     0.73100
O778        O  0.80626289  0.85820977  0.91798012    -0.58600
O779        O  0.74214285  0.86668993  0.95073465    -0.50500
C780        C  0.77117260  0.87782579  0.92397569     0.74900
O781        O  0.90690329  0.76335554  0.91730644    -0.70000
O782        O  0.91662738  0.70003796  0.95080960    -0.48600
C783        C  0.92794400  0.72937371  0.92444523     0.76300
O784        O  0.68451019  0.74703030  0.91742323    -0.65300
O785        O  0.67917822  0.80639006  0.95914710    -0.52500
C786        C  0.66551694  0.78165873  0.93023294     0.74700
Zr787      Zr  0.75063109  0.70426982  0.93614404     2.77500
O788        O  0.74654630  0.70169370  0.85856160    -0.96000
O789        O  0.69441534  0.65108028  0.94100171    -0.76900
Zr790      Zr  0.84051258  0.79387730  0.93879855     2.70100
O791        O  0.82774266  0.78288758  0.86382518    -0.78100
O792        O  0.89613501  0.84788957  0.94164705    -0.97200
Zr793      Zr  0.74090422  0.80780575  0.00141402     2.21500
Zr794      Zr  0.85505493  0.69478864  0.99908724     2.11100
O795        O  0.82494744  0.72090813  0.93522976    -2.45900
O796        O  0.76704052  0.77825570  0.93719606    -0.77900
O797        O  0.78090215  0.67524126  0.99928699    -0.70100
O798        O  0.81335000  0.82415678  0.00136571    -2.31100
O799        O  0.72245072  0.73344030  0.00017812    -2.27300
O800        O  0.87188111  0.76683858  0.00112096    -0.71900
H801        H  0.83785975  0.70585172  0.08818661     0.80100
H802        H  0.81830838  0.85439678  0.00139439     0.81200
H803        H  0.83842941  0.70846272  0.91053218     0.83500
H804        H  0.69189259  0.72968898  0.99996212     0.81100
H805        H  0.91384873  0.83838636  0.03881046     0.44100
H806        H  0.88406347  0.87093150  0.95933300     0.43100
H807        H  0.80300050  0.76346409  0.86212989     0.42700
H808        H  0.76755267  0.67995039  0.84989104     0.40700
H809        H  0.70960846  0.62378709  0.94441880     0.43800
H810        H  0.70029678  0.63079992  0.08772360     0.38600
H811        H  0.73767430  0.72820351  0.14961445     0.44700
H812        H  0.81489150  0.75621723  0.14255968     0.41100
H813        H  0.71844160  0.68860134  0.85253908     0.46000
H814        H  0.70511665  0.62812892  0.03805743     0.44800
H815        H  0.79318022  0.80042371  0.14088518     0.44900
H816        H  0.91889138  0.83549449  0.95961581     0.45300
C817        C  0.93201062  0.54822728  0.84175216    -0.11600
C818        C  0.93419261  0.57685534  0.81581933    -0.13100
C819        C  0.84306494  0.57915330  0.91285365    -0.11600
C820        C  0.86767433  0.54941060  0.90961126    -0.13100
C821        C  0.93352457  0.40811485  0.83944924    -0.11600
C822        C  0.94018961  0.38094376  0.81264731    -0.13100
C823        C  0.83830981  0.37930407  0.90763672    -0.11600
C824        C  0.86423392  0.40803753  0.90506463    -0.13100
C825        C  0.93221456  0.54265339  0.15836622    -0.11600
C826        C  0.93564204  0.56951721  0.18586931    -0.13100
C827        C  0.84441335  0.57732307  0.08446772    -0.11600
C828        C  0.86882057  0.54735495  0.08830799    -0.13100
C829        C  0.93247279  0.40494423  0.15694713    -0.11600
C830        C  0.93571854  0.37680440  0.18346893    -0.13100
C831        C  0.86822321  0.40355624  0.08734910    -0.11600
C832        C  0.84289703  0.37462306  0.08248361    -0.13100
C833        C  0.88527123  0.47577782  0.01841799    -0.11600
C834        C  0.88486637  0.47627268  0.97840130    -0.13100
C835        C  0.11404567  0.57369025  0.18298271    -0.11600
C836        C  0.11678100  0.54495856  0.15703120    -0.13100
C837        C  0.18269842  0.54550986  0.08970269    -0.11600
C838        C  0.20814584  0.57475307  0.08716255    -0.13100
C839        C  0.11507629  0.40304455  0.15420934    -0.11600
C840        C  0.11175147  0.37325934  0.17872880    -0.13100
C841        C  0.18292900  0.40541509  0.08939165    -0.11600
C842        C  0.20892635  0.37690777  0.08662811    -0.13100
C843        C  0.04471846  0.47461493  0.13748981    -0.11600
C844        C  0.00466104  0.47448133  0.13743385    -0.13100
C845        C  0.11255539  0.57094894  0.81153312    -0.11600
C846        C  0.11620880  0.54322567  0.83845015    -0.13100
C847        C  0.20490841  0.57232480  0.91498436    -0.11600
C848        C  0.17929792  0.54394099  0.90946283    -0.13100
C849        C  0.11719510  0.37648415  0.81197148    -0.11600
C850        C  0.11717840  0.40500656  0.83815603    -0.13100
C851        C  0.17759864  0.40150367  0.90953857    -0.11600
C852        C  0.20236099  0.37200940  0.91358962    -0.13100
C853        C  0.16154721  0.47389059  0.97828082    -0.11600
C854        C  0.16244380  0.47488172  0.01822333    -0.13100
C855        C  0.00340460  0.47679041  0.85917259    -0.11600
C856        C  0.04335253  0.47508574  0.85864804    -0.13100
C857        C  0.58935952  0.88232700  0.83845920    -0.11600
C858        C  0.61588768  0.88563814  0.81041734    -0.13100
C859        C  0.62552052  0.79658333  0.91281248    -0.11600
C860        C  0.59498688  0.82012091  0.90877546    -0.13100
C861        C  0.42354992  0.88598066  0.81317051    -0.11600
C862        C  0.45166912  0.88242301  0.83975595    -0.13100
C863        C  0.45226676  0.81455637  0.90476234    -0.11600
C864        C  0.42338741  0.78853223  0.90616055    -0.13100
C865        C  0.59537532  0.88516805  0.15299278    -0.11600
C866        C  0.62443347  0.88794071  0.17838648    -0.13100
C867        C  0.59406367  0.81821091  0.08831837    -0.11600
C868        C  0.62372143  0.79324254  0.08628264    -0.13100
C869        C  0.45647263  0.88505487  0.15856445    -0.11600
C870        C  0.43010766  0.88912829  0.18679055    -0.13100
C871        C  0.45078722  0.82137611  0.08831957    -0.11600
C872        C  0.42154913  0.79641480  0.08330782    -0.13100
C873        C  0.52208315  0.83665219  0.01795941    -0.11600
C874        C  0.52184106  0.83605371  0.97799338    -0.13100
C875        C  0.59116765  0.06825234  0.83634431    -0.11600
C876        C  0.61873273  0.06571937  0.80914112    -0.13100
C877        C  0.59370510  0.13370302  0.90319688    -0.11600
C878        C  0.62285770  0.15922520  0.90554359    -0.13100
C879        C  0.42908290  0.06433714  0.80994323    -0.11600
C880        C  0.45551839  0.06723665  0.83797721    -0.13100
C881        C  0.44993613  0.12955225  0.90796722    -0.11600
C882        C  0.41930834  0.15316062  0.91175836    -0.13100
C883        C  0.52284880  0.99449601  0.86017430    -0.11600
C884        C  0.52169480  0.95464218  0.86043792    -0.13100
C885        C  0.59113710  0.06880489  0.15793550    -0.11600
C886        C  0.61812807  0.06543879  0.18569903    -0.13100
C887        C  0.62562227  0.15693069  0.08390200    -0.11600
C888        C  0.59609710  0.13201592  0.08783847    -0.13100
C889        C  0.42138855  0.06436393  0.17635360    -0.11600
C890        C  0.45085257  0.06716298  0.15113916    -0.13100
C891        C  0.42482386  0.15860125  0.08257494    -0.11600
C892        C  0.45382353  0.13316828  0.08509095    -0.13100
C893        C  0.52435969  0.95656244  0.13517908    -0.11600
C894        C  0.52333195  0.99636869  0.13509993    -0.13100
C895        C  0.52472135  0.11463686  0.97617348    -0.11600
C896        C  0.52549581  0.11455524  0.01611988    -0.13100
C897        C  0.92975065  0.81958250  0.57044770    -0.11600
C898        C  0.93237029  0.79507440  0.60033298    -0.13100
C899        C  0.86263751  0.88386081  0.56706555    -0.11600
C900        C  0.83642193  0.88608964  0.59558280    -0.13100
C901        C  0.83732143  0.88144090  0.39859716    -0.11600
C902        C  0.86304355  0.88010311  0.42767426    -0.13100
C903        C  0.92952992  0.81476828  0.42883202    -0.11600
C904        C  0.93219584  0.78850888  0.40039573    -0.13100
C905        C  0.93361538  0.13492386  0.56757208    -0.11600
C906        C  0.93647060  0.16201720  0.59533813    -0.13100
C907        C  0.86899333  0.06567204  0.56986219    -0.11600
C908        C  0.84283351  0.06160210  0.59829458    -0.13100
C909        C  0.93908363  0.15600490  0.39716274    -0.11600
C910        C  0.93493592  0.13102255  0.42647368    -0.13100
C911        C  0.83700599  0.06415878  0.40385275    -0.11600
C912        C  0.86510727  0.06753738  0.43049681    -0.13100
C913        C  0.88529648  0.95503846  0.49701235    -0.11600
C914        C  0.88651654  0.99493464  0.49823671    -0.13100
C915        C  0.18329827  0.06625521  0.56690368    -0.11600
C916        C  0.20944558  0.06462629  0.59559001    -0.13100
C917        C  0.11118688  0.15461662  0.59892021    -0.11600
C918        C  0.11495983  0.13008769  0.56920152    -0.13100
C919        C  0.11392363  0.15451998  0.39400034    -0.11600
C920        C  0.11602796  0.13068602  0.42460449    -0.13100
C921        C  0.18122736  0.06479245  0.42537830    -0.11600
C922        C  0.20544222  0.06243081  0.39519720    -0.13100
C923        C  0.00545375  0.11418808  0.49743490    -0.11600
C924        C  0.04543520  0.11415021  0.49702178    -0.13100
C925        C  0.11337214  0.81620732  0.56666868    -0.11600
C926        C  0.11092853  0.78926772  0.59435148    -0.13100
C927        C  0.17533814  0.88695979  0.57094683    -0.11600
C928        C  0.20024912  0.89204430  0.60029232    -0.13100
C929        C  0.11133512  0.81957887  0.42621794    -0.11600
C930        C  0.10759813  0.79424619  0.39724220    -0.13100
C931        C  0.20667565  0.88737767  0.40056681    -0.11600
C932        C  0.17973452  0.88414401  0.42840446    -0.13100
C933        C  0.16099685  0.95493563  0.49799866    -0.11600
C934        C  0.16214337  0.99466081  0.49740581    -0.13100
C935        C  0.00102244  0.83578626  0.49842741    -0.11600
C936        C  0.04098206  0.83607649  0.49782853    -0.13100
loop_ 
_geom_bond_atom_site_label_1 
_geom_bond_atom_site_label_2 
_geom_bond_distance 
_geom_bond_site_symmetry_2 
_ccdc_geom_bond_type 
C1            C2   1.420       .  A
C1            C6   1.441       .  A
C1          C925   1.460       .  S
C2            C3   1.423       .  A
C2          C936   1.518       .  S
C3            C4   1.441       .  A
C3          C929   1.460       .  S
C4            C5   1.423       .  A
C4          C932   1.464       .  S
C5            C6   1.425       .  A
C5          C933   1.518       .  S
C6          C927   1.462       .  S
C7            C8   1.423       .  A
C7           C12   1.439       .  A
C7          C921   1.460       .  S
C8            C9   1.421       .  A
C8          C934   1.518   1_545  S
C9           C10   1.440       .  A
C9          C915   1.464       .  S
C10          C11   1.426       .  A
C10         C918   1.463       .  S
C11          C12   1.426       .  A
C11         C924   1.518       .  S
C12         C920   1.467       .  S
C13          C14   1.447       .  A
C13          C18   1.430       .  A
C13         C907   1.462       .  S
C14          C15   1.424       .  A
C14         C905   1.472       .  S
C15          C16   1.423       .  A
C15         C923   1.519   1_655  S
C16          C17   1.442       .  A
C16         C910   1.461       .  S
C17          C18   1.422       .  A
C17         C912   1.464       .  S
C18         C914   1.528   1_545  S
C19          C20   1.422       .  A
C19          C24   1.443       .  A
C19         C903   1.468       .  S
C20          C21   1.425       .  A
C20         C935   1.517   1_655  S
C21          C22   1.439       .  A
C21         C897   1.462       .  S
C22          C23   1.420       .  A
C22         C899   1.462       .  S
C23          C24   1.431       .  A
C23         C913   1.527       .  S
C24         C902   1.464       .  S
C25          C26   1.444       .  A
C25          C30   1.422       .  A
C25         C885   1.465       .  S
C26          C27   1.428       .  A
C26         C888   1.465       .  S
C27          C28   1.420       .  A
C27         C896   1.518       .  S
C28          C29   1.440       .  A
C28         C892   1.461       .  S
C29          C30   1.425       .  A
C29         C890   1.464       .  S
C30         C894   1.522   1_545  S
C31          C32   1.426       .  A
C31          C36   1.440       .  A
C31         C881   1.470       .  S
C32          C33   1.426       .  A
C32         C895   1.516       .  S
C33          C34   1.442       .  A
C33         C877   1.465       .  S
C34          C35   1.423       .  A
C34         C875   1.462       .  S
C35          C36   1.417       .  A
C35         C883   1.524   1_545  S
C36         C880   1.453       .  S
C37          C38   1.440       .  A
C37          C42   1.423       .  A
C37         C867   1.470       .  S
C38          C39   1.424       .  A
C38         C865   1.456       .  S
C39          C40   1.418       .  A
C39         C893   1.522       .  S
C40          C41   1.443       .  A
C40         C869   1.463       .  S
C41          C42   1.427       .  A
C41         C871   1.462       .  S
C42         C873   1.518       .  S
C43          C44   1.425       .  A
C43          C48   1.445       .  A
C43         C862   1.464       .  S
C44          C45   1.418       .  A
C44         C884   1.524       .  S
C45          C46   1.440       .  A
C45         C857   1.457       .  S
C46          C47   1.425       .  A
C46         C860   1.465       .  S
C47          C48   1.427       .  A
C47         C874   1.518       .  S
C48         C863   1.469       .  S
C49          C50   1.441       .  A
C49          C54   1.424       .  A
C49         C848   1.456       .  S
C50          C51   1.418       .  A
C50         C846   1.466       .  S
C51          C52   1.423       .  A
C51         C856   1.519       .  S
C52          C53   1.442       .  A
C52         C850   1.464       .  S
C53          C54   1.426       .  A
C53         C851   1.466       .  S
C54         C853   1.518       .  S
C55          C56   1.419       .  A
C55          C60   1.425       .  A
C55         C854   1.518       .  S
C56          C57   1.440       .  A
C56         C841   1.463       .  S
C57          C58   1.426       .  A
C57         C839   1.462       .  S
C58          C59   1.428       .  A
C58         C843   1.523       .  S
C59          C60   1.445       .  A
C59         C836   1.468       .  S
C60         C837   1.467       .  S
C61          C62   1.421       .  A
C61          C66   1.443       .  A
C61         C825   1.457       .  S
C62          C63   1.420       .  A
C62         C844   1.523   1_655  S
C63          C64   1.444       .  A
C63         C829   1.466       .  S
C64          C65   1.429       .  A
C64         C831   1.463       .  S
C65          C66   1.427       .  A
C65         C833   1.521       .  S
C66         C828   1.471       .  S
C67          C68   1.425       .  A
C67          C72   1.441       .  A
C67         C817   1.460       .  S
C68          C69   1.420       .  A
C68         C855   1.520   1_655  S
C69          C70   1.444       .  A
C69         C821   1.465       .  S
C70          C71   1.428       .  A
C70         C824   1.463       .  S
C71          C72   1.423       .  A
C71         C834   1.521       .  S
C72         C820   1.467       .  S
O73         Zr85   2.540       .  S
O73          C75   1.307       .  A
O74        Zr111   2.346       .  S
O74          C75   1.270       .  A
C75         C928   1.445       .  S
O76         Zr88   2.411       .  S
O76          C78   1.273       .  A
O77        Zr112   2.426       .  S
O77          C78   1.276       .  A
C78         C290   1.455       .  S
O79         Zr88   2.423       .  S
O79          C81   1.279       .  A
O80        Zr111   2.426       .  S
O80          C81   1.277       .  A
C81         C633   1.451       .  S
O82         Zr85   2.548       .  S
O82          C84   1.309       .  A
O83        Zr112   2.322       .  S
O83          C84   1.265       .  A
C84         C861   1.442       .  S
Zr85         O86   2.435       .  S
Zr85         O87   2.435       .  S
Zr85         O91   2.390       .  S
Zr85         O92   2.383       .  S
Zr85        O115   2.381       .  S
Zr85        O117   2.381       .  S
O86         H129   0.990       .  S
O87         H128   0.990       .  S
O87         H132   0.990       .  S
Zr88         O89   2.421       .  S
Zr88         O90   2.427       .  S
Zr88         O92   2.373       .  S
Zr88         O91   2.360       .  S
Zr88        O116   2.361       .  S
Zr88        O118   2.342       .  S
O89         H130   0.985       .  S
O89         H133   0.985       .  S
O90         H123   0.990       .  S
O91        Zr111   2.370       .  S
O92        Zr112   2.385       .  S
O92         H119   0.966       .  S
O93        Zr105   2.520       .  S
O93          C95   1.303       .  A
O94        Zr112   2.330   1_545  S
O94          C95   1.267       .  A
C95         C879   1.430       .  S
O96        Zr108   2.395       .  S
O96          C98   1.277       .  A
O97        Zr111   2.412   1_545  S
O97          C98   1.278       .  A
C98         C143   1.441       .  S
O99        Zr108   2.412       .  S
O99         C101   1.270       .  A
O100       Zr112   2.433   1_545  S
O100        C101   1.273       .  A
C101        C470   1.460       .  S
O102       Zr105   2.542       .  S
O102        C104   1.307       .  A
O103       Zr111   2.328   1_545  S
O103        C104   1.266       .  A
C104        C916   1.442       .  S
Zr105       O106   2.433       .  S
Zr105       O107   2.435       .  S
Zr105       O113   2.389       .  S
Zr105       O114   2.385       .  S
Zr105       O117   2.376   1_545  S
Zr105       O115   2.388   1_545  S
O106        H126   0.990       .  S
O106        H131   0.990       .  S
O107        H127   0.990       .  S
Zr108       O109   2.433       .  S
Zr108       O110   2.418       .  S
Zr108       O114   2.369       .  S
Zr108       O113   2.354       .  S
Zr108       O118   2.341   1_545  S
Zr108       O116   2.357   1_545  S
O109        H125   0.990       .  S
O110        H124   0.990       .  S
O110        H134   0.987       .  S
Zr111       O114   2.382   1_565  S
Zr111       O116   2.352       .  S
Zr111       O117   2.400       .  S
Zr112       O113   2.391   1_565  S
Zr112       O115   2.400       .  S
Zr112       O118   2.346       .  S
O113        H121   0.965       .  S
O116        H120   0.965       .  S
O117        H122   0.966       .  S
O135       Zr147   2.536       .  S
O135        C137   1.307       .  A
O136       Zr173   2.354       .  S
O136        C137   1.272       .  A
C137        C917   1.445       .  S
O138       Zr150   2.389       .  S
O138        C140   1.278       .  A
O139       Zr174   2.454       .  S
O139        C140   1.288       .  A
C140        C473   1.463       .  S
O141       Zr150   2.397       .  S
O141        C143   1.270       .  A
O142       Zr173   2.427       .  S
O142        C143   1.276       .  A
O144       Zr147   2.552       .  S
O144        C146   1.309       .  A
O145       Zr174   2.309       .  S
O145        C146   1.262       .  A
C146        C849   1.439       .  S
Zr147       O148   2.436       .  S
Zr147       O149   2.434       .  S
Zr147       O153   2.391       .  S
Zr147       O154   2.384       .  S
Zr147       O177   2.372       .  S
Zr147       O179   2.388       .  S
O148        H191   0.990       .  S
O149        H190   0.990       .  S
O149        H194   0.990       .  S
Zr150       O151   2.428       .  S
Zr150       O152   2.423       .  S
Zr150       O154   2.368       .  S
Zr150       O153   2.346       .  S
Zr150       O178   2.367       .  S
Zr150       O180   2.345       .  S
O151        H192   0.989       .  S
O151        H195   0.985       .  S
O152        H185   0.990       .  S
O153       Zr173   2.374       .  S
O154       Zr174   2.372       .  S
O154        H181   0.967       .  S
O155       Zr167   2.538       .  S
O155        C157   1.307       .  A
O156       Zr174   2.364   1_655  S
O156        C157   1.273       .  A
C157        C822   1.447       .  S
O158       Zr170   2.396       .  S
O158        C160   1.281       .  A
O159       Zr173   2.445   1_655  S
O159        C160   1.286       .  A
C160        C701   1.455       .  S
O161       Zr170   2.405       .  S
O161        C163   1.267       .  A
O162       Zr174   2.421   1_655  S
O162        C163   1.268       .  A
C163        C591   1.454       .  S
O164       Zr167   2.566       .  S
O164        C166   1.312       .  A
O165       Zr173   2.319   1_655  S
O165        C166   1.264       .  A
C166        C906   1.449       .  S
Zr167       O168   2.434       .  S
Zr167       O169   2.436       .  S
Zr167       O175   2.395       .  S
Zr167       O176   2.380       .  S
Zr167       O179   2.369   1_655  S
Zr167       O177   2.397   1_655  S
O168        H188   0.991       .  S
O168        H193   0.989       .  S
O169        H189   0.990       .  S
Zr170       O171   2.427       .  S
Zr170       O172   2.419       .  S
Zr170       O176   2.360       .  S
Zr170       O175   2.343       .  S
Zr170       O180   2.351   1_655  S
Zr170       O178   2.343   1_655  S
O171        H187   0.990       .  S
O172        H186   0.990       .  S
O172        H196   0.989       .  S
Zr173       O176   2.369   1_455  S
Zr173       O178   2.347       .  S
Zr173       O179   2.409       .  S
Zr174       O175   2.394   1_455  S
Zr174       O177   2.407       .  S
Zr174       O180   2.346       .  S
O175        H183   0.964       .  S
O178        H182   0.965       .  S
O179        H184   0.965       .  S
O197       Zr209   2.532       .  S
O197        C199   1.305       .  A
O198       Zr235   2.342       .  S
O198        C199   1.269       .  A
C199        C930   1.441       .  S
O200       Zr212   2.419       .  S
O200        C202   1.275       .  A
O201       Zr236   2.420       .  S
O201        C202   1.275       .  A
C202        C270   1.455       .  S
O203       Zr212   2.414       .  S
O203        C205   1.273       .  A
O204       Zr235   2.414       .  S
O204        C205   1.273       .  A
C205        C385   1.439       .  S
O206       Zr209   2.557       .  S
O206        C208   1.310       .  A
O207       Zr236   2.320       .  S
O207        C208   1.264       .  A
C208        C835   1.447       .  S
Zr209       O210   2.435       .  S
Zr209       O211   2.435       .  S
Zr209       O215   2.390       .  S
Zr209       O216   2.384       .  S
Zr209       O239   2.378       .  S
Zr209       O241   2.388       .  S
O210        H253   0.990       .  S
O211        H252   0.990       .  S
O211        H256   0.990       .  S
Zr212       O213   2.415       .  S
Zr212       O214   2.421       .  S
Zr212       O216   2.379       .  S
Zr212       O215   2.359       .  S
Zr212       O240   2.374       .  S
Zr212       O242   2.339       .  S
O213        H254   0.989       .  S
O213        H257   0.987       .  S
O214        H247   0.990       .  S
O215       Zr235   2.378       .  S
O216       Zr236   2.386       .  S
O216        H243   0.966       .  S
O217       Zr229   2.527       .  S
O217        C219   1.305       .  A
O218       Zr236   2.335   1_655  S
O218        C219   1.268       .  A
C219        C826   1.435       .  S
O220       Zr232   2.406       .  S
O220        C222   1.280       .  A
O221       Zr235   2.428   1_655  S
O221        C222   1.282       .  A
C222        C538   1.450       .  S
O223       Zr232   2.415       .  S
O223        C225   1.271       .  A
O224       Zr236   2.406   1_655  S
O224        C225   1.267       .  A
C225        C760   1.440       .  S
O226       Zr229   2.547       .  S
O226        C228   1.308       .  A
O227       Zr235   2.332   1_655  S
O227        C228   1.266       .  A
C228        C904   1.446       .  S
Zr229       O230   2.435       .  S
Zr229       O231   2.434       .  S
Zr229       O237   2.385       .  S
Zr229       O238   2.382       .  S
Zr229       O241   2.373   1_655  S
Zr229       O239   2.397   1_655  S
O230        H250   0.990       .  S
O230        H255   0.990       .  S
O231        H251   0.990       .  S
Zr232       O233   2.422       .  S
Zr232       O234   2.405       .  S
Zr232       O238   2.359       .  S
Zr232       O237   2.350       .  S
Zr232       O242   2.351   1_655  S
Zr232       O240   2.354   1_655  S
O233        H249   0.990       .  S
O234        H248   0.985       .  S
O234        H258   0.990       .  S
Zr235       O238   2.371   1_455  S
Zr235       O240   2.358       .  S
Zr235       O241   2.401       .  S
Zr236       O237   2.395   1_455  S
Zr236       O239   2.397       .  S
Zr236       O242   2.359       .  S
O237        H245   0.965       .  S
O240        H244   0.965       .  S
O241        H246   0.966       .  S
O259       Zr271   2.415       .  S
O259        C261   1.270       .  A
O260       Zr297   2.415   1_554  S
O260        C261   1.272       .  A
C261        C394   1.434       .  S
O262       Zr274   2.552       .  S
O262        C264   1.308       .  A
O263       Zr298   2.325       .  S
O263        C264   1.264       .  A
C264        C838   1.446       .  S
O265       Zr274   2.532       .  S
O265        C267   1.306       .  A
O266       Zr297   2.356   1_554  S
O266        C267   1.272       .  A
C267        C872   1.445       .  S
O268       Zr271   2.396       .  S
O268        C270   1.280       .  A
O269       Zr298   2.438       .  S
O269        C270   1.286       .  A
Zr271       O272   2.412       .  S
Zr271       O273   2.436       .  S
Zr271       O277   2.355       .  S
Zr271       O278   2.377       .  S
Zr271       O301   2.347   1_554  S
Zr271       O303   2.356   1_554  S
O272        H315   0.989       .  S
O273        H314   0.991       .  S
O273        H318   0.990       .  S
Zr274       O275   2.436       .  S
Zr274       O276   2.436       .  S
Zr274       O278   2.383       .  S
Zr274       O277   2.391       .  S
Zr274       O302   2.389   1_554  S
Zr274       O304   2.372   1_554  S
O275        H316   0.990       .  S
O275        H319   0.990       .  S
O276        H309   0.990       .  S
O277       Zr297   2.375   1_554  S
O278       Zr298   2.368       .  S
O278        H305   0.967       .  S
O279       Zr291   2.419       .  S
O279        C281   1.272       .  A
O280       Zr298   2.410   1_556  S
O280        C281   1.269       .  A
C281        C642   1.447       .  S
O282       Zr294   2.554       .  S
O282        C284   1.309       .  A
O283       Zr297   2.321       .  S
O283        C284   1.264       .  A
C284        C864   1.446       .  S
O285       Zr294   2.524       .  S
O285        C287   1.304       .  A
O286       Zr298   2.352   1_556  S
O286        C287   1.271       .  A
C287        C847   1.439       .  S
O288       Zr291   2.421       .  S
O288        C290   1.284       .  A
O289       Zr297   2.431       .  S
O289        C290   1.285       .  A
Zr291       O292   2.417       .  S
Zr291       O293   2.418       .  S
Zr291       O299   2.357       .  S
Zr291       O300   2.372       .  S
Zr291       O303   2.331       .  S
Zr291       O301   2.354       .  S
O292        H312   0.988       .  S
O292        H317   0.983       .  S
O293        H313   0.990       .  S
Zr294       O295   2.433       .  S
Zr294       O296   2.434       .  S
Zr294       O300   2.380       .  S
Zr294       O299   2.388       .  S
Zr294       O304   2.395       .  S
Zr294       O302   2.372       .  S
O295        H311   0.990       .  S
O296        H310   0.990       .  S
O296        H320   0.990       .  S
Zr297       O300   2.369       .  S
Zr297       O302   2.404       .  S
Zr297       O303   2.352       .  S
Zr298       O299   2.389   1_554  S
Zr298       O301   2.345   1_554  S
Zr298       O304   2.399   1_554  S
O299        H307   0.963       .  S
O302        H306   0.965       .  S
O303        H308   0.965       .  S
O321       Zr333   2.380       .  S
O321        C323   1.277       .  A
O322       Zr359   2.443       .  S
O322        C323   1.285       .  A
C323        C414   1.455       .  S
O324       Zr336   2.533       .  S
O324        C326   1.306       .  A
O325       Zr360   2.345       .  S
O325        C326   1.269       .  A
C326        C840   1.443       .  S
O327       Zr336   2.548       .  S
O327        C329   1.308       .  A
O328       Zr359   2.338       .  S
O328        C329   1.267       .  A
C329        C919   1.447       .  S
O330       Zr333   2.421       .  S
O330        C332   1.273       .  A
O331       Zr360   2.394       .  S
O331        C332   1.268       .  A
C332        C450   1.443       .  S
Zr333       O334   2.408       .  S
Zr333       O335   2.436       .  S
Zr333       O339   2.374       .  S
Zr333       O340   2.367       .  S
Zr333       O363   2.341       .  S
Zr333       O365   2.362       .  S
O334        H377   0.990       .  S
O335        H376   0.989       .  S
O335        H380   0.990       .  S
Zr336       O337   2.434       .  S
Zr336       O338   2.435       .  S
Zr336       O340   2.393       .  S
Zr336       O339   2.386       .  S
Zr336       O364   2.374       .  S
Zr336       O366   2.391       .  S
O337        H378   0.990       .  S
O337        H381   0.990       .  S
O338        H371   0.990       .  S
O339       Zr359   2.366       .  S
O340       Zr360   2.395       .  S
O340        H367   0.965       .  S
O341       Zr353   2.382       .  S
O341        C343   1.277       .  A
O342       Zr360   2.453   1_655  S
O342        C343   1.289       .  A
C343        C580   1.455       .  S
O344       Zr356   2.533       .  S
O344        C346   1.306       .  A
O345       Zr359   2.349   1_655  S
O345        C346   1.271       .  A
C346        C909   1.443       .  S
O347       Zr356   2.550       .  S
O347        C349   1.309       .  A
O348       Zr360   2.324   1_655  S
O348        C349   1.265       .  A
C349        C830   1.444       .  S
O350       Zr353   2.377       .  S
O350        C352   1.276       .  A
O351       Zr359   2.436   1_655  S
O351        C352   1.284       .  A
C352        C509   1.449       .  S
Zr353       O354   2.407       .  S
Zr353       O355   2.432       .  S
Zr353       O361   2.360       .  S
Zr353       O362   2.343       .  S
Zr353       O365   2.352   1_655  S
Zr353       O363   2.331   1_655  S
O354        H374   0.990       .  S
O354        H379   0.989       .  S
O355        H375   0.990       .  S
Zr356       O357   2.435       .  S
Zr356       O358   2.433       .  S
Zr356       O362   2.377       .  S
Zr356       O361   2.378       .  S
Zr356       O366   2.376   1_655  S
Zr356       O364   2.390   1_655  S
O357        H373   0.990       .  S
O358        H372   0.990       .  S
O358        H382   0.990       .  S
Zr359       O362   2.363   1_455  S
Zr359       O364   2.407       .  S
Zr359       O365   2.336       .  S
Zr360       O361   2.355   1_455  S
Zr360       O363   2.337       .  S
Zr360       O366   2.400       .  S
O361        H369   0.964       .  S
O364        H368   0.965       .  S
O365        H370   0.966       .  S
O383       Zr395   2.368       .  S
O383        C385   1.275       .  A
O384       Zr421   2.440       .  S
O384        C385   1.286       .  A
O386       Zr398   2.547       .  S
O386        C388   1.308       .  A
O387       Zr422   2.324       .  S
O387        C388   1.266       .  A
C388        C870   1.440       .  S
O389       Zr398   2.552       .  S
O389        C391   1.310       .  A
O390       Zr421   2.328       .  S
O390        C391   1.267       .  A
C391        C931   1.443       .  S
O392       Zr395   2.354       .  S
O392        C394   1.271       .  A
O393       Zr422   2.422       .  S
O393        C394   1.280       .  A
Zr395       O396   2.435       .  S
Zr395       O397   2.426       .  S
Zr395       O401   2.335       .  S
Zr395       O402   2.331       .  S
Zr395       O425   2.359       .  S
Zr395       O427   2.343       .  S
O396        H439   0.990       .  S
O397        H438   0.990       .  S
O397        H442   0.990       .  S
Zr398       O399   2.435       .  S
Zr398       O400   2.435       .  S
Zr398       O402   2.377       .  S
Zr398       O401   2.374       .  S
Zr398       O426   2.379       .  S
Zr398       O428   2.387       .  S
O399        H440   0.990       .  S
O399        H443   0.990       .  S
O400        H433   0.990       .  S
O401       Zr421   2.370       .  S
O402       Zr422   2.376       .  S
O402        H429   0.966       .  S
O403       Zr415   2.426       .  S
O403        C405   1.276       .  A
O404       Zr422   2.415   1_545  S
O404        C405   1.273       .  A
C405        C453   1.455       .  S
O406       Zr418   2.533       .  S
O406        C408   1.305       .  A
O407       Zr421   2.343   1_545  S
O407        C408   1.269       .  A
C408        C922   1.440       .  S
O409       Zr418   2.546       .  S
O409        C411   1.308       .  A
O410       Zr422   2.329   1_545  S
O410        C411   1.266       .  A
C411        C889   1.444       .  S
O412       Zr415   2.415       .  S
O412        C414   1.274       .  A
O413       Zr421   2.431   1_545  S
O413        C414   1.279       .  A
Zr415       O416   2.421       .  S
Zr415       O417   2.429       .  S
Zr415       O423   2.375       .  S
Zr415       O424   2.372       .  S
Zr415       O427   2.363   1_545  S
Zr415       O425   2.361   1_545  S
O416        H436   0.990       .  S
O416        H441   0.988       .  S
O417        H437   0.990       .  S
Zr418       O419   2.436       .  S
Zr418       O420   2.434       .  S
Zr418       O424   2.396       .  S
Zr418       O423   2.381       .  S
Zr418       O428   2.378   1_545  S
Zr418       O426   2.382   1_545  S
O419        H435   0.990       .  S
O420        H434   0.990       .  S
O420        H444   0.990       .  S
Zr421       O424   2.375   1_565  S
Zr421       O426   2.405       .  S
Zr421       O427   2.343       .  S
Zr422       O423   2.381   1_565  S
Zr422       O425   2.346       .  S
Zr422       O428   2.396       .  S
O423        H431   0.965       .  S
O426        H430   0.965       .  S
O427        H432   0.964       .  S
O445       Zr457   2.532       .  S
O445        C447   1.306       .  A
O446       Zr483   2.344       .  S
O446        C447   1.270       .  A
C447        C891   1.440       .  S
O448       Zr460   2.402       .  S
O448        C450   1.279       .  A
O449       Zr484   2.410       .  S
O449        C450   1.280       .  A
O451       Zr460   2.396       .  S
O451        C453   1.277       .  A
O452       Zr483   2.443       .  S
O452        C453   1.286       .  A
O454       Zr457   2.544       .  S
O454        C456   1.307       .  A
O455       Zr484   2.331       .  S
O455        C456   1.266       .  A
C456        C842   1.442       .  S
Zr457       O458   2.435       .  S
Zr457       O459   2.434       .  S
Zr457       O463   2.390       .  S
Zr457       O464   2.384       .  S
Zr457       O487   2.377   1_554  S
Zr457       O489   2.389   1_554  S
O458        H501   0.990       .  S
O459        H500   0.991       .  S
O459        H504   0.990       .  S
Zr460       O461   2.446       .  S
Zr460       O462   2.403       .  S
Zr460       O464   2.356       .  S
Zr460       O463   2.342       .  S
Zr460       O488   2.368       .  S
Zr460       O490   2.357       .  S
O461        H502   0.988       .  S
O461        H505   0.990       .  S
O462        H495   0.991       .  S
O463       Zr483   2.370       .  S
O464       Zr484   2.376       .  S
O464        H491   0.965       .  S
O465       Zr477   2.547       .  S
O465        C467   1.308       .  A
O466       Zr484   2.333   1_556  S
O466        C467   1.267       .  A
C467        C852   1.446       .  S
O468       Zr480   2.410       .  S
O468        C470   1.282       .  A
O469       Zr483   2.429   1_556  S
O469        C470   1.283       .  A
O471       Zr480   2.424       .  S
O471        C473   1.274       .  A
O472       Zr484   2.425   1_556  S
O472        C473   1.274       .  A
O474       Zr477   2.553       .  S
O474        C476   1.309       .  A
O475       Zr483   2.345   1_556  S
O475        C476   1.269       .  A
C476        C882   1.452       .  S
Zr477       O478   2.434       .  S
Zr477       O479   2.434       .  S
Zr477       O485   2.389       .  S
Zr477       O486   2.391       .  S
Zr477       O489   2.371       .  S
Zr477       O487   2.379       .  S
O478        H498   0.990       .  S
O478        H503   0.990       .  S
O479        H499   0.990       .  S
Zr480       O481   2.412       .  S
Zr480       O482   2.436       .  S
Zr480       O486   2.374       .  S
Zr480       O485   2.365       .  S
Zr480       O490   2.346   1_556  S
Zr480       O488   2.354   1_556  S
O481        H497   0.990       .  S
O482        H496   0.990       .  S
O482        H506   0.990       .  S
Zr483       O486   2.371   1_554  S
Zr483       O488   2.342       .  S
Zr483       O489   2.407   1_554  S
Zr484       O485   2.379   1_554  S
Zr484       O487   2.393   1_554  S
Zr484       O490   2.345       .  S
O485        H493   0.965       .  S
O488        H492   0.966       .  S
O489        H494   0.966       .  S
O507       Zr519   2.417       .  S
O507        C509   1.273       .  A
O508       Zr545   2.417   1_545  S
O508        C509   1.271       .  A
O510       Zr522   2.550       .  S
O510        C512   1.309       .  A
O511       Zr546   2.332   1_545  S
O511        C512   1.267       .  A
C512        C886   1.443       .  S
O513       Zr522   2.553       .  S
O513        C515   1.311       .  A
O514       Zr545   2.328   1_545  S
O514        C515   1.267       .  A
C515        C911   1.442       .  S
O516       Zr519   2.382       .  S
O516        C518   1.277       .  A
O517       Zr546   2.430   1_545  S
O517        C518   1.283       .  A
C518        C571   1.447       .  S
Zr519       O520   2.419       .  S
Zr519       O521   2.420       .  S
Zr519       O525   2.333       .  S
Zr519       O526   2.346       .  S
Zr519       O549   2.363   1_545  S
Zr519       O551   2.355   1_545  S
O520        H563   0.990       .  S
O521        H562   0.990       .  S
O521        H566   0.988       .  S
Zr522       O523   2.434       .  S
Zr522       O524   2.434       .  S
Zr522       O526   2.384       .  S
Zr522       O525   2.364       .  S
Zr522       O550   2.393   1_545  S
Zr522       O552   2.381   1_545  S
O523        H564   0.990       .  S
O523        H567   0.990       .  S
O524        H557   0.990       .  S
O525       Zr545   2.383   1_545  S
O526       Zr546   2.378   1_545  S
O526        H553   0.965       .  S
O527       Zr539   2.426       .  S
O527        C529   1.276       .  A
O528       Zr546   2.426       .  S
O528        C529   1.275       .  A
C529        C763   1.462       .  S
O530       Zr542   2.542       .  S
O530        C532   1.307       .  A
O531       Zr545   2.327       .  S
O531        C532   1.266       .  A
C532        C901   1.441       .  S
O533       Zr542   2.521       .  S
O533        C535   1.303       .  A
O534       Zr546   2.341       .  S
O534        C535   1.269       .  A
C535        C866   1.436       .  S
O536       Zr539   2.406       .  S
O536        C538   1.274       .  A
O537       Zr545   2.436       .  S
O537        C538   1.281       .  A
Zr539       O540   2.427       .  S
Zr539       O541   2.427       .  S
Zr539       O547   2.371       .  S
Zr539       O548   2.370       .  S
Zr539       O551   2.370       .  S
Zr539       O549   2.356       .  S
O540        H560   0.988       .  S
O540        H565   0.989       .  S
O541        H561   0.990       .  S
Zr542       O543   2.437       .  S
Zr542       O544   2.435       .  S
Zr542       O548   2.386       .  S
Zr542       O547   2.396       .  S
Zr542       O552   2.386       .  S
Zr542       O550   2.375       .  S
O543        H559   0.990       .  S
O544        H558   0.990       .  S
O544        H568   0.990       .  S
Zr545       O548   2.362       .  S
Zr545       O550   2.410       .  S
Zr545       O551   2.361       .  S
Zr546       O547   2.383       .  S
Zr546       O549   2.345       .  S
Zr546       O552   2.399       .  S
O547        H555   0.965       .  S
O550        H554   0.967       .  S
O551        H556   0.963       .  S
O569       Zr581   2.414       .  S
O569        C571   1.273       .  A
O570       Zr607   2.429   1_554  S
O570        C571   1.278       .  A
O572       Zr584   2.538       .  S
O572        C574   1.306       .  A
O573       Zr608   2.341   1_554  S
O573        C574   1.268       .  A
C574        C832   1.444       .  S
O575       Zr584   2.544       .  S
O575        C577   1.308       .  A
O576       Zr607   2.341   1_554  S
O576        C577   1.269       .  A
C577        C887   1.446       .  S
O578       Zr581   2.429       .  S
O578        C580   1.276       .  A
O579       Zr608   2.413   1_554  S
O579        C580   1.271       .  A
Zr581       O582   2.414       .  S
Zr581       O583   2.428       .  S
Zr581       O587   2.359       .  S
Zr581       O588   2.369       .  S
Zr581       O611   2.362   1_554  S
Zr581       O613   2.372   1_554  S
O582        H625   0.990       .  S
O583        H624   0.989       .  S
O583        H628   0.989       .  S
Zr584       O585   2.435       .  S
Zr584       O586   2.434       .  S
Zr584       O588   2.387       .  S
Zr584       O587   2.380       .  S
Zr584       O612   2.384   1_554  S
Zr584       O614   2.383   1_554  S
O585        H626   0.990       .  S
O585        H629   0.990       .  S
O586        H619   0.990       .  S
O587       Zr607   2.366   1_554  S
O588       Zr608   2.394   1_554  S
O588        H615   0.966       .  S
O589       Zr601   2.406       .  S
O589        C591   1.282       .  A
O590       Zr608   2.426       .  S
O590        C591   1.282       .  A
O592       Zr604   2.543       .  S
O592        C594   1.307       .  A
O593       Zr607   2.335       .  S
O593        C594   1.267       .  A
C594        C878   1.444       .  S
O595       Zr604   2.544       .  S
O595        C597   1.307       .  A
O596       Zr608   2.330       .  S
O596        C597   1.266       .  A
C597        C823   1.443       .  S
O598       Zr601   2.392       .  S
O598        C600   1.278       .  A
O599       Zr607   2.434       .  S
O599        C600   1.284       .  A
C600        C698   1.451       .  S
Zr601       O602   2.384       .  S
Zr601       O603   2.433       .  S
Zr601       O609   2.359       .  S
Zr601       O610   2.358       .  S
Zr601       O613   2.330       .  S
Zr601       O611   2.339       .  S
O602        H622   0.989       .  S
O602        H627   0.986       .  S
O603        H623   0.990       .  S
Zr604       O605   2.433       .  S
Zr604       O606   2.437       .  S
Zr604       O610   2.383       .  S
Zr604       O609   2.384       .  S
Zr604       O614   2.378       .  S
Zr604       O612   2.383       .  S
O605        H621   0.990       .  S
O606        H620   0.990       .  S
O606        H630   0.990       .  S
Zr607       O610   2.365       .  S
Zr607       O612   2.408       .  S
Zr607       O613   2.351       .  S
Zr608       O609   2.370       .  S
Zr608       O611   2.349       .  S
Zr608       O614   2.395       .  S
O609        H617   0.967       .  S
O612        H616   0.967       .  S
O613        H618   0.966       .  S
O631       Zr643   2.371       .  S
O631        C633   1.272       .  A
O632       Zr669   2.452       .  S
O632        C633   1.286       .  A
O634       Zr646   2.555       .  S
O634        C636   1.310       .  A
O635       Zr670   2.337       .  S
O635        C636   1.268       .  A
C636        C845   1.446       .  S
O637       Zr646   2.541       .  S
O637        C639   1.308       .  A
O638       Zr669   2.329       .  S
O638        C639   1.268       .  A
C639        C926   1.438       .  S
O640       Zr643   2.383       .  S
O640        C642   1.275       .  A
O641       Zr670   2.428       .  S
O641        C642   1.282       .  A
Zr643       O644   2.447       .  S
Zr643       O645   2.404       .  S
Zr643       O649   2.329       .  S
Zr643       O650   2.329       .  S
Zr643       O675   2.344       .  S
Zr643       O673   2.255       .  S
O644        H687   0.990       .  S
O645        H686   0.991       .  S
O645        H690   0.984       .  S
Zr646       O647   2.435       .  S
Zr646       O648   2.435       .  S
Zr646       O650   2.383       .  S
Zr646       O649   2.384       .  S
Zr646       O674   2.388       .  S
Zr646       O676   2.382       .  S
O647        H688   0.990       .  S
O647        H691   0.990       .  S
O648        H681   0.990       .  S
O649       Zr669   2.371       .  S
O650       Zr670   2.375       .  S
O650        H677   0.966       .  S
O651       Zr663   2.423       .  S
O651        C653   1.275       .  A
O652       Zr670   2.429   1_655  S
O652        C653   1.275       .  A
C653        C783   1.463       .  S
O654       Zr666   2.540       .  S
O654        C656   1.307       .  A
O655       Zr669   2.338   1_655  S
O655        C656   1.269       .  A
C656        C898   1.441       .  S
O657       Zr666   2.535       .  S
O657        C659   1.306       .  A
O658       Zr670   2.334   1_655  S
O658        C659   1.267       .  A
C659        C818   1.439       .  S
O660       Zr663   2.421       .  S
O660        C662   1.279       .  A
O661       Zr669   2.434   1_655  S
O661        C662   1.280       .  A
C662        C718   1.457       .  S
Zr663       O664   2.421       .  S
Zr663       O665   2.421       .  S
Zr663       O671   2.364       .  S
Zr663       O672   2.358       .  S
Zr663       O675   2.359   1_655  S
Zr663       O673   2.258   1_655  S
O664        H684   0.987       .  S
O664        H689   0.987       .  S
O665        H685   0.990       .  S
Zr666       O667   2.436       .  S
Zr666       O668   2.435       .  S
Zr666       O672   2.390       .  S
Zr666       O671   2.389       .  S
Zr666       O676   2.386   1_655  S
Zr666       O674   2.379   1_655  S
O667        H683   0.990       .  S
O668        H682   0.990       .  S
O668        H692   0.990       .  S
Zr669       O672   2.374   1_455  S
Zr669       O674   2.415       .  S
Zr669       O675   2.342       .  S
Zr670       O671   2.382   1_455  S
Zr670       O676   2.401       .  S
Zr670       O673   2.237       .  S
O671        H679   0.965       .  S
O674        H678   0.966       .  S
O675        H680   0.964       .  S
O693       Zr705   2.538       .  S
O693        C695   1.307       .  A
O694       Zr731   2.348   1_545  S
O694        C695   1.271       .  A
C695        C908   1.444       .  S
O696       Zr708   2.418       .  S
O696        C698   1.273       .  A
O697       Zr732   2.421   1_545  S
O697        C698   1.274       .  A
O699       Zr708   2.394       .  S
O699        C701   1.273       .  A
O700       Zr731   2.451   1_545  S
O700        C701   1.283       .  A
O702       Zr705   2.540       .  S
O702        C704   1.307       .  A
O703       Zr732   2.323   1_545  S
O703        C704   1.266       .  A
C704        C876   1.438       .  S
Zr705       O706   2.436       .  S
Zr705       O707   2.434       .  S
Zr705       O711   2.384       .  S
Zr705       O712   2.388       .  S
Zr705       O735   2.380   1_545  S
Zr705       O737   2.382   1_545  S
O706        H749   0.990       .  S
O707        H748   0.990       .  S
O707        H752   0.990       .  S
Zr708       O709   2.431       .  S
Zr708       O710   2.404       .  S
Zr708       O712   2.361       .  S
Zr708       O711   2.343       .  S
Zr708       O736   2.376   1_545  S
Zr708       O738   2.347   1_545  S
O709        H750   0.987       .  S
O709        H753   0.988       .  S
O710        H743   0.990       .  S
O711       Zr731   2.365   1_545  S
O712       Zr732   2.380   1_545  S
O712        H739   0.965       .  S
O713       Zr725   2.537       .  S
O713        C715   1.306       .  A
O714       Zr732   2.323       .  S
O714        C715   1.266       .  A
C715        C858   1.434       .  S
O716       Zr728   2.390       .  S
O716        C718   1.277       .  A
O717       Zr731   2.445       .  S
O717        C718   1.287       .  A
O719       Zr728   2.421       .  S
O719        C721   1.273       .  A
O720       Zr732   2.429       .  S
O720        C721   1.273       .  A
C721        C780   1.456       .  S
O722       Zr725   2.540       .  S
O722        C724   1.307       .  A
O723       Zr731   2.333       .  S
O723        C724   1.268       .  A
C724        C900   1.440       .  S
Zr725       O726   2.434       .  S
Zr725       O727   2.435       .  S
Zr725       O733   2.385       .  S
Zr725       O734   2.387       .  S
Zr725       O737   2.382       .  S
Zr725       O735   2.385       .  S
O726        H746   0.990       .  S
O726        H751   0.990       .  S
O727        H747   0.989       .  S
Zr728       O729   2.426       .  S
Zr728       O730   2.404       .  S
Zr728       O734   2.354       .  S
Zr728       O733   2.347       .  S
Zr728       O738   2.349       .  S
Zr728       O736   2.354       .  S
O729        H745   0.990       .  S
O730        H744   0.989       .  S
O730        H754   0.985       .  S
Zr731       O734   2.377       .  S
Zr731       O736   2.344       .  S
Zr731       O737   2.414       .  S
Zr732       O733   2.389       .  S
Zr732       O735   2.402       .  S
Zr732       O738   2.352       .  S
O733        H741   0.965       .  S
O736        H740   0.965       .  S
O737        H742   0.966       .  S
O755       Zr767   2.552       .  S
O755        C757   1.310       .  A
O756       Zr793   2.339       .  S
O756        C757   1.268       .  A
C757        C868   1.448       .  S
O758       Zr770   2.390       .  S
O758        C760   1.279       .  A
O759       Zr794   2.415   1_554  S
O759        C760   1.281       .  A
O761       Zr770   2.383       .  S
O761        C763   1.278       .  A
O762       Zr793   2.465       .  S
O762        C763   1.291       .  A
O764       Zr767   2.555       .  S
O764        C766   1.310       .  A
O765       Zr794   2.346   1_554  S
O765        C766   1.269       .  A
C766        C827   1.453       .  S
Zr767       O768   2.435       .  S
Zr767       O769   2.433       .  S
Zr767       O773   2.389       .  S
Zr767       O774   2.381       .  S
Zr767       O797   2.383   1_554  S
Zr767       O799   2.380       .  S
O768        H811   0.990       .  S
O769        H810   0.990       .  S
O769        H814   0.990       .  S
Zr770       O771   2.419       .  S
Zr770       O772   2.432       .  S
Zr770       O774   2.356       .  S
Zr770       O773   2.354       .  S
Zr770       O798   2.343       .  S
Zr770       O800   2.354       .  S
O771        H812   0.989       .  S
O771        H815   0.990       .  S
O772        H805   0.990       .  S
O773       Zr793   2.361       .  S
O774       Zr794   2.373   1_554  S
O774        H801   0.966       .  S
O775       Zr787   2.550       .  S
O775        C777   1.308       .  A
O776       Zr794   2.336       .  S
O776        C777   1.267       .  A
C777        C819   1.447       .  S
O778       Zr790   2.387       .  S
O778        C780   1.277       .  A
O779       Zr793   2.442   1_556  S
O779        C780   1.286       .  A
O781       Zr790   2.392       .  S
O781        C783   1.279       .  A
O782       Zr794   2.458       .  S
O782        C783   1.289       .  A
O784       Zr787   2.543       .  S
O784        C786   1.308       .  A
O785       Zr793   2.346   1_556  S
O785        C786   1.270       .  A
C786        C859   1.447       .  S
Zr787       O788   2.437       .  S
Zr787       O789   2.434       .  S
Zr787       O795   2.387       .  S
Zr787       O796   2.387       .  S
Zr787       O799   2.379   1_556  S
Zr787       O797   2.378       .  S
O788        H808   0.990       .  S
O788        H813   0.990       .  S
O789        H809   0.990       .  S
Zr790       O791   2.409       .  S
Zr790       O792   2.436       .  S
Zr790       O796   2.355       .  S
Zr790       O795   2.353       .  S
Zr790       O800   2.347   1_556  S
Zr790       O798   2.343   1_556  S
O791        H807   0.989       .  S
O792        H806   0.990       .  S
O792        H816   0.990       .  S
Zr793       O796   2.366   1_554  S
Zr793       O798   2.328       .  S
Zr793       O799   2.414       .  S
Zr794       O795   2.361       .  S
Zr794       O797   2.404       .  S
Zr794       O800   2.331   1_556  S
O795        H803   0.966       .  S
O798        H802   0.965       .  S
O799        H804   0.965   1_554  S
C817        C818   1.216       .  T
C819        C820   1.220       .  T
C821        C822   1.219       .  T
C823        C824   1.218       .  T
C825        C826   1.214       .  T
C827        C828   1.223       .  T
C829        C830   1.219       .  T
C831        C832   1.218       .  T
C833        C834   1.254   1_554  T
C835        C836   1.221       .  T
C837        C838   1.220       .  T
C839        C840   1.217       .  T
C841        C842   1.217       .  T
C843        C844   1.256       .  T
C845        C846   1.220       .  T
C847        C848   1.213       .  T
C849        C850   1.218       .  T
C851        C852   1.219       .  T
C853        C854   1.253   1_556  T
C855        C856   1.254       .  T
C857        C858   1.214       .  T
C859        C860   1.219       .  T
C861        C862   1.218       .  T
C863        C864   1.221       .  T
C865        C866   1.213       .  T
C867        C868   1.221       .  T
C869        C870   1.218       .  T
C871        C872   1.217       .  T
C873        C874   1.253   1_554  T
C875        C876   1.217       .  T
C877        C878   1.219       .  T
C879        C880   1.211       .  T
C881        C882   1.222       .  T
C883        C884   1.257       .  T
C885        C886   1.219       .  T
C887        C888   1.219       .  T
C889        C890   1.218       .  T
C891        C892   1.216       .  T
C893        C894   1.255       .  T
C895        C896   1.252   1_556  T
C897        C898   1.217       .  T
C899        C900   1.216       .  T
C901        C902   1.218       .  T
C903        C904   1.220       .  T
C905        C906   1.223       .  T
C907        C908   1.217       .  T
C909        C910   1.216       .  T
C911        C912   1.219       .  T
C913        C914   1.259       .  T
C915        C916   1.218       .  T
C917        C918   1.217       .  T
C919        C920   1.220       .  T
C921        C922   1.215       .  T
C923        C924   1.253       .  T
C925        C926   1.216       .  T
C927        C928   1.217       .  T
C929        C930   1.215       .  T
C931        C932   1.218       .  T
C933        C934   1.253       .  T
C935        C936   1.253       .  T
