geometry optimzed in LAMMPS
_audit_creation_date              2020-12-01 
_audit_creation_method            'lammps2cif' 
_symmetry_space_group_name_H-M    'P1' 
_symmetry_Int_Tables_number       1 
_symmetry_cell_setting            triclinic 
loop_ 
_symmetry_equiv_pos_as_xyz 
  x,y,z 
_cell_length_a                    47.85847229 
_cell_length_b                    47.59189982595709 
_cell_length_c                    47.83449150595559 
_cell_angle_alpha                 89.49342780385237 
_cell_angle_beta                  90.41296452635093 
_cell_angle_gamma                 89.65906940826508 
loop_ 
_atom_site_label 
_atom_site_type_symbol 
_atom_site_fract_x 
_atom_site_fract_y 
_atom_site_fract_z 
_atom_site_charge 
C1          C  0.10669943  0.85747995  0.49197481     0.02900
C2          C  0.12183194  0.86299854  0.46689252     0.02900
C3          C  0.14332047  0.88338421  0.46669312     0.02900
C4          C  0.14932418  0.89788333  0.49155542     0.02900
C5          C  0.14000341  0.88678642  0.51734325     0.02900
C6          C  0.11726689  0.86773242  0.51776952     0.02900
C7          C  0.14307879  0.10921101  0.49379614     0.02900
C8          C  0.13837948  0.12718896  0.47031609     0.02900
C9          C  0.11992469  0.15060642  0.47344516     0.02900
C10         C  0.10841523  0.15588433  0.50035257     0.02900
C11         C  0.12239302  0.14411968  0.52414850     0.02900
C12         C  0.13939958  0.11986257  0.52105138     0.02900
C13         C  0.89840998  0.14734178  0.49650129     0.02900
C14         C  0.88621989  0.14382230  0.52325058     0.02900
C15         C  0.86381999  0.12444574  0.52673681     0.02900
C16         C  0.85662675  0.10735606  0.50354711     0.02900
C17         C  0.86240488  0.11800149  0.47606580     0.02900
C18         C  0.88289238  0.13944599  0.47248392     0.02900
C19         C  0.89842909  0.85486834  0.50306185     0.02900
C20         C  0.88378605  0.85935576  0.47754262     0.02900
C21         C  0.86234439  0.88033956  0.47628998     0.02900
C22         C  0.85547099  0.89551432  0.50103636     0.02900
C23         C  0.86459559  0.88434264  0.52760560     0.02900
C24         C  0.88613491  0.86324521  0.52861033     0.02900
C25         C  0.49657668  0.15161590  0.10494287     0.02900
C26         C  0.47269986  0.14342297  0.12026495     0.02900
C27         C  0.47484879  0.11952752  0.13814610     0.02900
C28         C  0.50126073  0.10661994  0.14301339     0.02900
C29         C  0.52569233  0.12127709  0.13537452     0.02900
C30         C  0.52335371  0.14384177  0.11573508     0.02900
C31         C  0.50583425  0.13748737  0.89523403     0.02900
C32         C  0.48086663  0.13090849  0.88066952     0.02900
C33         C  0.48124718  0.10873744  0.86095540     0.02900
C34         C  0.50752390  0.09639972  0.85399192     0.02900
C35         C  0.53271213  0.11059438  0.86148102     0.02900
C36         C  0.53218863  0.13042134  0.88370099     0.02900
C37         C  0.50242257  0.89317997  0.14502132     0.02900
C38         C  0.47683759  0.88289058  0.13441400     0.02900
C39         C  0.47752656  0.86222135  0.11318671     0.02900
C40         C  0.50372271  0.85320850  0.10235785     0.02900
C41         C  0.52796982  0.85695231  0.11948235     0.02900
C42         C  0.52710788  0.87695552  0.14153806     0.02900
C43         C  0.50101119  0.88249901  0.84993551     0.02900
C44         C  0.52482912  0.86668627  0.85787442     0.02900
C45         C  0.52186393  0.84581844  0.87918049     0.02900
C46         C  0.49519069  0.84137766  0.89161154     0.02900
C47         C  0.47082388  0.85077459  0.87708225     0.02900
C48         C  0.47422584  0.87105488  0.85534800     0.02900
C49         C  0.11483859  0.50094109  0.84799059     0.02900
C50         C  0.12708179  0.47472953  0.85570332     0.02900
C51         C  0.14801607  0.47420960  0.87724736     0.02900
C52         C  0.15571214  0.49980312  0.89057283     0.02900
C53         C  0.14963454  0.52569643  0.87666678     0.02900
C54         C  0.12939246  0.52588266  0.85471805     0.02900
C55         C  0.13766040  0.49650309  0.10132248     0.02900
C56         C  0.12726286  0.52209522  0.11253935     0.02900
C57         C  0.10614051  0.52102975  0.13335605     0.02900
C58         C  0.09531789  0.49462111  0.14131989     0.02900
C59         C  0.11133792  0.47007980  0.13656002     0.02900
C60         C  0.13306348  0.47113922  0.11646597     0.02900
C61         C  0.88409642  0.50248244  0.15622936     0.02900
C62         C  0.87258473  0.47607816  0.14916202     0.02900
C63         C  0.85268757  0.47517328  0.12692543     0.02900
C64         C  0.84616371  0.49978988  0.11106401     0.02900
C65         C  0.85191680  0.52616641  0.12321253     0.02900
C66         C  0.86925223  0.52705712  0.14753090     0.02900
C67         C  0.90319723  0.49873611  0.85775033     0.02900
C68         C  0.88772185  0.47395580  0.86450598     0.02900
C69         C  0.86857401  0.47454237  0.88740682     0.02900
C70         C  0.86290895  0.50096542  0.89981507     0.02900
C71         C  0.86877609  0.52565163  0.88401981     0.02900
C72         C  0.89071477  0.52525399  0.86397180     0.02900
O73         O  0.19807589  0.96580422  0.75950198    -0.79500
O74         O  0.28591598  0.01604304  0.81139015    -0.79500
O75         O  0.25977504  0.93922470  0.77934307    -0.79500
O76         O  0.22783347  0.05582782  0.74071032    -0.79500
O77         O  0.24499956  0.97780706  0.80013952    -0.79600
O78         O  0.20257352  0.02320385  0.75998347    -0.79500
O79         O  0.25550575  0.04039323  0.78575903    -0.79500
O80         O  0.22200838  0.93298626  0.73858393    -0.79500
C81         C  0.20151257  0.94026644  0.75356861     1.10200
C82         C  0.26884900  0.03626851  0.80904553     1.10100
C83         C  0.24943993  0.95154180  0.80057170     1.10200
C84         C  0.20516689  0.04835068  0.75188278     1.10100
O85         O  0.21676093  0.02265456  0.70115329    -0.79500
O86         O  0.30055088  0.97079519  0.78197444    -0.79600
O87         O  0.25837545  0.95652102  0.69788454    -0.79500
O88         O  0.28620774  0.06415486  0.74506152    -0.79500
O89         O  0.30288654  0.02267584  0.75814243    -0.79500
O90         O  0.21305418  0.96693402  0.69998415    -0.79500
O91         O  0.26233858  0.03150880  0.70067583    -0.79500
O92         O  0.30048836  0.95964758  0.73799298    -0.79500
Co93       Co  0.20944704  0.99444557  0.73160020     1.51500
Co94       Co  0.27126360  0.00050302  0.77812524     1.51700
Co95       Co  0.26028837  0.94998629  0.73831081     1.51600
Co96       Co  0.26213373  0.03182732  0.74294929     1.51500
O97         O  0.24928544  0.99118186  0.74393673    -1.41400
C98         C  0.23810026  0.03294548  0.68901465     1.10100
C99         C  0.31217733  0.95889202  0.76165982     1.10200
C100        C  0.23442439  0.95833064  0.68656439     1.10100
C101        C  0.30634692  0.04948453  0.75520477     1.10100
O102        O  0.02058078  0.17749803  0.72397818    -0.79500
O103        O  0.97498595  0.23324006  0.80934992    -0.79500
O104        O  0.06455100  0.24458819  0.77988810    -0.79500
O105        O  0.94626721  0.21608644  0.74860412    -0.79500
O106        O  0.03149163  0.22721267  0.80590858    -0.79600
O107        O  0.98310221  0.19244057  0.76457295    -0.79500
O108        O  0.94407396  0.25769029  0.78545935    -0.79500
O109        O  0.04822539  0.20381842  0.75008741    -0.79500
C110        C  0.04266513  0.18021397  0.73826201     1.10200
C111        C  0.95041604  0.24218650  0.80617348     1.10100
C112        C  0.05708815  0.23196814  0.80213129     1.10200
C113        C  0.95687400  0.19414443  0.76019205     1.10100
O114        O  0.97833982  0.21011142  0.70892633    -0.79500
O115        O  0.03596490  0.28654057  0.79247966    -0.79600
O116        O  0.07182117  0.24512786  0.72112554    -0.79500
O117        O  0.96949413  0.29653679  0.74924587    -0.79500
O118        O  0.98057978  0.29296563  0.79460242    -0.79500
O119        O  0.03067570  0.23052486  0.70518460    -0.79500
O120        O  0.96797570  0.25461447  0.70608488    -0.79500
O121        O  0.04189456  0.28939985  0.74673986    -0.79500
Co122      Co  0.00760596  0.21230415  0.73791604     1.51500
Co123      Co  0.00538289  0.25863366  0.79860743     1.51700
Co124      Co  0.04043674  0.24718350  0.74534819     1.51600
Co125      Co  0.96005305  0.25626475  0.74718598     1.51500
O126        O  0.00064371  0.24730818  0.75864145    -1.41400
C127        C  0.96680448  0.23011837  0.69585866     1.10100
C128        C  0.04563883  0.29939162  0.77123399     1.10200
C129        C  0.05704750  0.23519270  0.70120930     1.10100
C130        C  0.97127727  0.30713563  0.77359950     1.10100
O131        O  0.02852574  0.80315084  0.24357234    -0.79500
O132        O  0.97975117  0.72160509  0.18329750    -0.79500
O133        O  0.05546334  0.74346994  0.22270786    -0.79500
O134        O  0.93899954  0.77524146  0.25341632    -0.79500
O135        O  0.01868933  0.76049128  0.19964873    -0.79600
O136        O  0.97153403  0.80284456  0.23728263    -0.79500
O137        O  0.95382644  0.74695582  0.21194049    -0.79500
O138        O  0.05977601  0.77859570  0.26661098    -0.79500
C139        C  0.05280803  0.80096264  0.25361608     1.10200
C140        C  0.95874550  0.73728809  0.18733785     1.10100
C141        C  0.04486970  0.75612401  0.20140999     1.10200
C142        C  0.94587017  0.79753379  0.24040806     1.10100
O143        O  0.96689975  0.78575942  0.29546612    -0.79500
O144        O  0.02311591  0.70319332  0.21463786    -0.79600
O145        O  0.03271713  0.73878034  0.30210718    -0.79500
O146        O  0.93007461  0.71783790  0.25303709    -0.79500
O147        O  0.96949379  0.70012397  0.23547744    -0.79500
O148        O  0.02231895  0.78454471  0.30171928    -0.79500
O149        O  0.96231832  0.73961238  0.29663478    -0.79500
O150        O  0.03357516  0.69900696  0.25876946    -0.79500
Co151      Co  0.99773941  0.79213539  0.26799156     1.51500
Co152      Co  0.99399242  0.73305277  0.21855929     1.51700
Co153      Co  0.04240037  0.73999492  0.26247315     1.51600
Co154      Co  0.96241416  0.74013703  0.25466084     1.51500
O155        O  0.00198634  0.75263103  0.25417549    -1.41400
C156        C  0.95844392  0.76363104  0.30772910     1.10100
C157        C  0.03478226  0.68937177  0.23420606     1.10200
C158        C  0.03097666  0.76222621  0.31434370     1.10100
C159        C  0.94322515  0.69749989  0.24192875     1.10100
O160        O  0.29499405  0.78929924  0.03113267    -0.79500
O161        O  0.21758425  0.70667636  0.98884248    -0.79500
O162        O  0.24461781  0.70819914  0.05003144    -0.79500
O163        O  0.26985659  0.76759674  0.94636879    -0.79500
O164        O  0.20028014  0.71434737  0.03875974    -0.79600
O165        O  0.29417109  0.76818702  0.98372774    -0.79500
O166        O  0.22782431  0.72799237  0.95039507    -0.79500
O167        O  0.29211219  0.74555791  0.04655489    -0.79500
C168        C  0.30552551  0.76852692  0.04444304     1.10200
C169        C  0.22186856  0.70553557  0.96312143     1.10100
C170        C  0.21933578  0.69998174  0.05084061     1.10200
C171        C  0.29362545  0.76798259  0.95773570     1.10100
O172        O  0.27665413  0.82271985  0.98549525    -0.79500
O173        O  0.19099055  0.77353320  0.02956932    -0.79600
O174        O  0.25556183  0.78987218  0.06349901    -0.79500
O175        O  0.19098937  0.77087228  0.97507215    -0.79500
O176        O  0.16881344  0.73486137  0.99289696    -0.79500
O177        O  0.23872378  0.81126503  0.02658456    -0.79500
O178        O  0.23446539  0.80967561  0.97206201    -0.79500
O179        O  0.21186258  0.75608644  0.06665507    -0.79500
Co180      Co  0.26436617  0.78866240  0.00298151     1.51500
Co181      Co  0.20571436  0.74150644  0.00731120     1.51700
Co182      Co  0.25094681  0.74964585  0.05303954     1.51600
Co183      Co  0.23235409  0.76709309  0.96594378     1.51500
O184        O  0.24459585  0.75400125  0.00974865    -1.41400
C185        C  0.25523069  0.82662880  0.97000048     1.10100
C186        C  0.19192942  0.77013445  0.05581022     1.10200
C187        C  0.24580433  0.81194030  0.05205343     1.10100
C188        C  0.17092541  0.75318607  0.97350038     1.10100
O189        O  0.02717033  0.25061224  0.29768264    -0.79500
O190        O  0.97996702  0.30501953  0.25591416    -0.79500
O191        O  0.06857547  0.27980038  0.23426938    -0.79500
O192        O  0.96538833  0.24998814  0.29190405    -0.79500
O193        O  0.03642106  0.30658726  0.25283126    -0.79600
O194        O  0.98673405  0.21172353  0.30725883    -0.79500
O195        O  0.94668887  0.27894011  0.24196727    -0.79500
O196        O  0.06396819  0.23701817  0.27375588    -0.79500
C197        C  0.05282473  0.24391547  0.29694861     1.10200
C198        C  0.95518125  0.30331509  0.24738896     1.10100
C199        C  0.06125995  0.30316961  0.24497289     1.10200
C200        C  0.96920960  0.23118586  0.31145869     1.10100
O201        O  0.97577228  0.19997954  0.25280113    -0.79500
O202        O  0.03356364  0.29028421  0.19448142    -0.79600
O203        O  0.03793901  0.20179121  0.23044390    -0.79500
O204        O  0.97185240  0.23855506  0.20805789    -0.79500
O205        O  0.97738412  0.28367684  0.19850051    -0.79500
O206        O  0.02959124  0.19609844  0.27424971    -0.79500
O207        O  0.93661810  0.22440144  0.25087647    -0.79500
O208        O  0.03998486  0.24468996  0.19388806    -0.79500
Co209      Co  0.00163296  0.22812055  0.27465673     1.51500
Co210      Co  0.00699691  0.29445842  0.22701420     1.51700
Co211      Co  0.05016664  0.24133974  0.23358831     1.51600
Co212      Co  0.97060050  0.24422463  0.24855395     1.51500
O213        O  0.01109380  0.25490924  0.24352367    -1.41400
C214        C  0.94883871  0.20086928  0.25026912     1.10100
C215        C  0.04004674  0.26809240  0.18139238     1.10200
C216        C  0.03973318  0.18652032  0.25191544     1.10100
C217        C  0.96799981  0.25949762  0.19196469     1.10100
O218        O  0.23904363  0.97266241  0.29928094    -0.79500
O219        O  0.30014834  0.03512996  0.21759881    -0.79500
O220        O  0.28175172  0.94459036  0.23145802    -0.79500
O221        O  0.26175118  0.03535051  0.30527148    -0.79500
O222        O  0.30540093  0.98272090  0.23272037    -0.79600
O223        O  0.21812379  0.02087614  0.30443972    -0.79500
O224        O  0.30202420  0.04245712  0.26274603    -0.79500
O225        O  0.24079839  0.93820185  0.27097066    -0.79500
C226        C  0.24014008  0.94683508  0.29568222     1.10200
C227        C  0.31247022  0.04542543  0.23864378     1.10100
C228        C  0.30516520  0.95650848  0.23118865     1.10200
C229        C  0.23845033  0.03218012  0.31739636     1.10100
O230        O  0.19969726  0.02323560  0.24615990    -0.79500
O231        O  0.28348099  0.99339397  0.18161874    -0.79600
O232        O  0.20104318  0.96925338  0.23667869    -0.79500
O233        O  0.25739360  0.06338650  0.22678058    -0.79500
O234        O  0.24261789  0.02766426  0.20234812    -0.79500
O235        O  0.18578859  0.97820960  0.27911762    -0.79500
O236        O  0.22018591  0.05748374  0.26770813    -0.79500
O237        O  0.24317596  0.97493020  0.19464098    -0.79500
Co238      Co  0.22044379  0.99611670  0.27096044     1.51500
Co239      Co  0.27287258  0.00364434  0.21826205     1.51700
Co240      Co  0.24345275  0.96200346  0.23590448     1.51600
Co241      Co  0.26050165  0.04608633  0.26509332     1.51500
O242        O  0.25630277  0.00353929  0.25474440    -1.41400
C243        C  0.19901367  0.04821770  0.25486439     1.10100
C244        C  0.26309358  0.97726746  0.17671809     1.10200
C245        C  0.18315729  0.96485316  0.25630837     1.10100
C246        C  0.24512249  0.05376949  0.20541432     1.10100
O247        O  0.23374152  0.19317184  0.03110410    -0.79500
O248        O  0.19897096  0.23596601  0.97826143    -0.79500
O249        O  0.20428604  0.24918453  0.04231271    -0.79500
O250        O  0.26359647  0.21189318  0.94228510    -0.79500
O251        O  0.18235014  0.27799069  0.01314585    -0.79600
O252        O  0.24131818  0.18751036  0.97424062    -0.79500
O253        O  0.22377149  0.25160486  0.94258584    -0.79500
O254        O  0.24908916  0.22173171  0.06270840    -0.79500
C255        C  0.23738299  0.19882589  0.05660148     1.10200
C256        C  0.20186237  0.24008533  0.95226605     1.10100
C257        C  0.18171428  0.26255602  0.03470729     1.10200
C258        C  0.25064941  0.18990169  0.94969216     1.10100
O259        O  0.29904485  0.20320169  0.98081311    -0.79500
O260        O  0.23352889  0.29635288  0.02769514    -0.79600
O261        O  0.28963990  0.25763346  0.03921056    -0.79500
O262        O  0.26283287  0.29218356  0.96517484    -0.79500
O263        O  0.21788589  0.29262947  0.97322512    -0.79500
O264        O  0.29209340  0.21112436  0.03572877    -0.79500
O265        O  0.30314910  0.24784277  0.96768537    -0.79500
O266        O  0.24426275  0.27822945  0.06919662    -0.79500
Co267      Co  0.26503704  0.20094352  0.00515146     1.51500
Co268      Co  0.21743285  0.26325681  0.00308226     1.51700
Co269      Co  0.24814096  0.25524783  0.03726912     1.51600
Co270      Co  0.26306632  0.25101564  0.95758613     1.51500
O271        O  0.25221711  0.24087815  0.99805384    -1.41400
C272        C  0.31326609  0.22316014  0.97024013     1.10100
C273        C  0.23628329  0.29915620  0.05457150     1.10200
C274        C  0.30241939  0.23443786  0.04369460     1.10100
C275        C  0.23934296  0.30458274  0.96371673     1.10100
O276        O  0.79696381  0.02697052  0.28504038    -0.79500
O277        O  0.69975132  0.97052750  0.23887986    -0.79500
O278        O  0.70355978  0.03690383  0.25929657    -0.79500
O279        O  0.74767233  0.96453277  0.29179301    -0.79500
O280        O  0.69879800  0.02288757  0.21615786    -0.79600
O281        O  0.79298655  0.97116190  0.28471253    -0.79500
O282        O  0.71977329  0.93039678  0.25188341    -0.79500
O283        O  0.75292360  0.03856077  0.29417485    -0.79500
C284        C  0.77861520  0.03698500  0.30144249     1.10200
C285        C  0.69805560  0.94370880  0.24362684     1.10100
C286        C  0.68882761  0.03507701  0.23718470     1.10200
C287        C  0.77310578  0.96259430  0.30018023     1.10100
O288        O  0.80016555  0.97070574  0.22430526    -0.79500
O289        O  0.75223905  0.01778776  0.19146401    -0.79600
O290        O  0.78237240  0.06158310  0.24810067    -0.79500
O291        O  0.74325635  0.95480251  0.20688072    -0.79500
O292        O  0.71058719  0.97939741  0.18419492    -0.79500
O293        O  0.80407861  0.02843925  0.22507923    -0.79500
O294        O  0.77643853  0.93906703  0.24710532    -0.79500
O295        O  0.73834658  0.05614185  0.21330887    -0.79500
Co296      Co  0.79614181  0.99952316  0.25358033     1.51500
Co297      Co  0.72881320  0.99417092  0.21591387     1.51700
Co298      Co  0.74425809  0.04512980  0.25393904     1.51600
Co299      Co  0.74237616  0.96334710  0.25007543     1.51500
O300        O  0.75470051  0.00362455  0.24696750    -1.41400
C301        C  0.79678323  0.94538277  0.23158097     1.10100
C302        C  0.74795003  0.04407811  0.19165119     1.10200
C303        C  0.80242823  0.05366916  0.23275779     1.10100
C304        C  0.72833805  0.95966079  0.18473223     1.10100
O305        O  0.71077914  0.20808620  0.02588653    -0.79500
O306        O  0.79272313  0.28763607  0.97069067    -0.79500
O307        O  0.74981996  0.29547117  0.03523847    -0.79500
O308        O  0.72278494  0.24710368  0.93290259    -0.79500
O309        O  0.79520007  0.29223528  0.02548751    -0.79600
O310        O  0.70662614  0.22871049  0.97268117    -0.79500
O311        O  0.74688905  0.29079502  0.96489389    -0.79500
O312        O  0.70742506  0.25266193  0.03573913    -0.79500
C313        C  0.69729712  0.22807148  0.03649208     1.10200
C314        C  0.77135923  0.30115062  0.96172019     1.10100
C315        C  0.77401471  0.30646399  0.03316771     1.10200
C316        C  0.70310180  0.23539138  0.94641754     1.10100
O317        O  0.72745206  0.17617385  0.98364345    -0.79500
O318        O  0.81092153  0.23358928  0.03172675    -0.79600
O319        O  0.75039239  0.21468234  0.05883115    -0.79500
O320        O  0.77997577  0.24717276  0.94194765    -0.79500
O321        O  0.80638472  0.22820500  0.97448861    -0.79500
O322        O  0.76698083  0.19216340  0.02210736    -0.79500
O323        O  0.75175622  0.20501159  0.95660945    -0.79500
O324        O  0.78654528  0.25695945  0.06225439    -0.79500
Co325      Co  0.73983450  0.21142076  0.99707629     1.51500
Co326      Co  0.79938749  0.25885740  0.00085107     1.51700
Co327      Co  0.74826686  0.25502543  0.04513566     1.51600
Co328      Co  0.74587720  0.24825164  0.96531366     1.51500
O329        O  0.75964400  0.24689598  0.00489497    -1.41400
C330        C  0.74223787  0.18023439  0.96220754     1.10100
C331        C  0.80848992  0.24339593  0.05599859     1.10200
C332        C  0.76290576  0.19348316  0.04831615     1.10100
C333        C  0.80190204  0.23378242  0.94900707     1.10100
O334        O  0.03318411  0.79482554  0.71195225    -0.79500
O335        O  0.96941909  0.70155733  0.75950125    -0.79500
O336        O  0.04182908  0.69908109  0.73346653    -0.79500
O337        O  0.96172920  0.73978511  0.71066161    -0.79500
O338        O  0.02321862  0.69271228  0.77563900    -0.79600
O339        O  0.98294374  0.77960402  0.70406402    -0.79500
O340        O  0.93256936  0.72952134  0.75973063    -0.79500
O341        O  0.04689624  0.75145223  0.70092631    -0.79500
C342        C  0.04479002  0.77774901  0.69503096     1.10200
C343        C  0.94284089  0.70476085  0.76241103     1.10100
C344        C  0.03642536  0.68336153  0.75455367     1.10200
C345        C  0.96772523  0.76020311  0.69471717     1.10100
O346        O  0.98626924  0.82137357  0.74037845    -0.79500
O347        O  0.02638106  0.74773188  0.80081365    -0.79600
O348        O  0.06558803  0.77702307  0.75059361    -0.79500
O349        O  0.96998395  0.75537929  0.79353106    -0.79500
O350        O  0.98224896  0.71506658  0.81331671    -0.79500
O351        O  0.02926625  0.79690569  0.77118151    -0.79500
O352        O  0.95421020  0.78753839  0.74851966    -0.79500
O353        O  0.06219339  0.72858596  0.78044976    -0.79500
Co354      Co  0.00394666  0.78597192  0.73993111     1.51500
Co355      Co  0.99885872  0.72651962  0.77867054     1.51700
Co356      Co  0.05173909  0.73890696  0.74080040     1.51600
Co357      Co  0.96867177  0.74593328  0.75143711     1.51500
O358        O  0.01055722  0.74728651  0.74524693    -1.41400
C359        C  0.96118742  0.81390639  0.74560109     1.10100
C360        C  0.05144256  0.73966013  0.80183639     1.10200
C361        C  0.05548371  0.79554765  0.76672238     1.10100
C362        C  0.96937805  0.73856783  0.81478785     1.10100
O363        O  0.82119789  0.02019865  0.72201575    -0.79500
O364        O  0.76606251  0.97060771  0.80689887    -0.79500
O365        O  0.75116082  0.06144589  0.77836840    -0.79500
O366        O  0.78202763  0.94338084  0.74306054    -0.79500
O367        O  0.76996648  0.02747306  0.80226365    -0.79600
O368        O  0.80611090  0.97933194  0.75970750    -0.79500
O369        O  0.74339119  0.93929335  0.78242465    -0.79500
O370        O  0.79589202  0.04451864  0.75172718    -0.79500
C371        C  0.81949052  0.03981671  0.73966199     1.10200
C372        C  0.75971638  0.94531725  0.80248172     1.10100
C373        C  0.76329587  0.05303032  0.80050457     1.10200
C374        C  0.80408703  0.95338264  0.75413282     1.10100
O375        O  0.78671930  0.97807186  0.70414325    -0.79500
O376        O  0.71045416  0.03030444  0.78653042    -0.79600
O377        O  0.75635125  0.07166851  0.72153045    -0.79500
O378        O  0.70136067  0.96468060  0.74837506    -0.79500
O379        O  0.70677178  0.97468900  0.79334976    -0.79500
O380        O  0.76872169  0.03119738  0.70294658    -0.79500
O381        O  0.74239441  0.96636398  0.70324036    -0.79500
O382        O  0.71172555  0.03826939  0.74060271    -0.79500
Co383      Co  0.78618794  0.00581970  0.73457222     1.51500
Co384      Co  0.73963132  0.00069430  0.79535944     1.51700
Co385      Co  0.75312136  0.03808338  0.74355160     1.51600
Co386      Co  0.74216102  0.95663100  0.74411429     1.51500
O387        O  0.75131298  0.99718756  0.75546170    -1.41400
C388        C  0.76654464  0.96576916  0.69222782     1.10100
C389        C  0.69941295  0.04028932  0.76404720     1.10200
C390        C  0.76569494  0.05814894  0.70073809     1.10100
C391        C  0.69182510  0.96554496  0.77329069     1.10100
O392        O  0.72925271  0.82299016  0.00997307    -0.79500
O393        O  0.81368028  0.76134388  0.97130743    -0.79500
O394        O  0.77905601  0.75219156  0.05921144    -0.79500
O395        O  0.75497166  0.77979013  0.93873996    -0.79500
O396        O  0.80607782  0.76913588  0.02708619    -0.79600
O397        O  0.77019267  0.80420021  0.97506985    -0.79500
O398        O  0.79148499  0.73702470  0.93958051    -0.79500
O399        O  0.75208554  0.79597057  0.04033334    -0.79500
C400        C  0.74212495  0.82031083  0.03297245     1.10200
C401        C  0.81280122  0.75087023  0.94726681     1.10100
C402        C  0.80181548  0.76388691  0.05254679     1.10200
C403        C  0.76801286  0.80077615  0.94881358     1.10100
O404        O  0.71405590  0.78906176  0.96869586    -0.79500
O405        O  0.78995796  0.71026867  0.03206478    -0.79600
O406        O  0.72193613  0.75510117  0.06385628    -0.79500
O407        O  0.75189670  0.70074752  0.96590774    -0.79500
O408        O  0.79668608  0.70302327  0.97823478    -0.79500
O409        O  0.70691556  0.77199961  0.02278054    -0.79500
O410        O  0.71068832  0.74413880  0.96071109    -0.79500
O411        O  0.74376531  0.71076643  0.03362106    -0.79500
Co412      Co  0.74165528  0.78698320  0.99935046     1.51500
Co413      Co  0.79998116  0.73747511  0.00178315     1.51700
Co414      Co  0.74587043  0.75262225  0.03304878     1.51600
Co415      Co  0.75187041  0.74052003  0.95402252     1.51500
O416        O  0.76119785  0.75087249  0.99435530    -1.41400
C417        C  0.70052758  0.76878455  0.95876910     1.10100
C418        C  0.76704096  0.69876523  0.03904262     1.10200
C419        C  0.70238976  0.76564775  0.04892977     1.10100
C420        C  0.77566532  0.68911975  0.96960113     1.10100
C421        C  0.79928487  0.90356101  0.85865854    -0.13700
C422        C  0.78248627  0.87961037  0.86064098     0.16700
C423        C  0.75953676  0.87670372  0.84228348     0.03000
C424        C  0.75344996  0.89787083  0.82280998    -0.12200
C425        C  0.76927046  0.92258792  0.82165962    -0.03300
C426        C  0.79288303  0.92506068  0.83938182     0.02200
C427        C  0.78617732  0.86010166  0.88455504     0.09000
N428        N  0.74042898  0.85388477  0.84506381     0.65400
H429        H  0.73509681  0.89557135  0.80963451     0.18300
N430        N  0.81042022  0.94922290  0.83828748     0.75900
H431        H  0.81684699  0.90600805  0.87284164     0.09800
C432        C  0.79232369  0.83142711  0.88082481     0.03500
C433        C  0.78825383  0.81252584  0.90290784    -0.05200
C434        C  0.77874204  0.82184801  0.92894412    -0.23600
C435        C  0.77565626  0.85090886  0.93348151     0.12800
C436        C  0.77911000  0.86974562  0.91118970    -0.12700
N437        N  0.80242804  0.82119119  0.85476647     0.64400
H438        H  0.79154932  0.79028966  0.89937164     0.12300
N439        N  0.76561437  0.86135418  0.95941641     0.61100
H440        H  0.77436446  0.89180721  0.91422821     0.08500
O441        O  0.83298310  0.94812412  0.82484942    -0.40400
O442        O  0.80650372  0.96895793  0.85528812    -0.39600
O443        O  0.72104609  0.85566800  0.86271003    -0.39600
O444        O  0.73830502  0.83635894  0.82553584    -0.37300
O445        O  0.78283672  0.86911137  0.97784603    -0.38200
O446        O  0.74037009  0.86875803  0.96120104    -0.34300
O447        O  0.82818923  0.82293532  0.84967512    -0.35700
O448        O  0.78771341  0.80432701  0.84086196    -0.40000
C449        C  0.91476969  0.77324903  0.86031790    -0.13700
C450        C  0.91451481  0.75506040  0.88338856     0.16700
C451        C  0.93565593  0.73437596  0.88606941     0.03000
C452        C  0.95443547  0.73000304  0.86413254    -0.12200
C453        C  0.95322925  0.74680079  0.83986811    -0.03300
C454        C  0.93417104  0.76979309  0.83896962     0.02200
C455        C  0.88924848  0.75451096  0.90113190     0.09000
N456        N  0.93820576  0.71771713  0.91097263     0.65400
H457        H  0.96949566  0.71297535  0.86583263     0.18300
N458        N  0.93290630  0.78895491  0.81582062     0.75900
H459        H  0.89869429  0.78922515  0.85788922     0.09800
C460        C  0.87854261  0.77876394  0.91419269     0.03500
C461        C  0.85316531  0.77740111  0.92856272    -0.05200
C462        C  0.83788964  0.75235616  0.92969106    -0.23600
C463        C  0.84830095  0.72834561  0.91614840     0.12800
C464        C  0.87367613  0.72964839  0.90200060    -0.12700
N465        N  0.89331499  0.80475870  0.91342167     0.64400
H466        H  0.84541741  0.79596011  0.93903717     0.12300
N467        N  0.83438945  0.70195755  0.91818833     0.61100
H468        H  0.88112791  0.71109197  0.89134498     0.08500
O469        O  0.94634155  0.81164091  0.81704005    -0.40400
O470        O  0.91398887  0.78627989  0.79754224    -0.39600
O471        O  0.93111461  0.69223588  0.91077592    -0.39600
O472        O  0.95234394  0.72687852  0.93126900    -0.37300
O473        O  0.82038443  0.69315869  0.89764099    -0.38200
O474        O  0.84118291  0.68510119  0.93759460    -0.34300
O475        O  0.88363405  0.82499857  0.89905791    -0.35700
O476        O  0.91194091  0.80938264  0.93157406    -0.40000
C477        C  0.91948597  0.87909640  0.76396980    -0.13700
C478        C  0.89328061  0.87235779  0.75279130     0.16700
C479        C  0.89007785  0.84681721  0.73834857     0.03000
C480        C  0.91263901  0.82829439  0.73636524    -0.12200
C481        C  0.93880498  0.83503652  0.74754936    -0.03300
C482        C  0.94227584  0.86096494  0.76109688     0.02200
C483        C  0.87049102  0.89328792  0.75512410     0.09000
N484        N  0.86515917  0.84038507  0.72324334     0.65400
H485        H  0.90986263  0.80879267  0.72517705     0.18300
N486        N  0.96841168  0.86908900  0.77278935     0.75900
H487        H  0.92233331  0.89872944  0.77493132     0.09800
C488        C  0.84451147  0.88669225  0.76721302     0.03500
C489        C  0.82331627  0.90701944  0.76746648    -0.05200
C490        C  0.82808763  0.93435437  0.75754000    -0.23600
C491        C  0.85459471  0.94143713  0.74715633     0.12800
C492        C  0.87534705  0.92079488  0.74558144    -0.12700
N493        N  0.83981922  0.86015046  0.78061684     0.64400
H494        H  0.80303838  0.90154025  0.77575907     0.12300
N495        N  0.86019197  0.96888044  0.73633914     0.61100
H496        H  0.89530891  0.92619252  0.73647846     0.08500
O497        O  0.97271911  0.86465527  0.79850539    -0.40400
O498        O  0.98205651  0.88809824  0.76052079    -0.39600
O499        O  0.86451508  0.84596295  0.69744674    -0.39600
O500        O  0.84965554  0.82108116  0.73237165    -0.37300
O501        O  0.85951053  0.97307975  0.71026051    -0.38200
O502        O  0.87150544  0.98681712  0.75197812    -0.34300
O503        O  0.85453922  0.85319180  0.80157476    -0.35700
O504        O  0.81772032  0.84673848  0.77546683    -0.40000
C505        C  0.73756576  0.11603644  0.91608047    -0.13700
C506        C  0.76214966  0.11904067  0.90055735     0.16700
C507        C  0.78131163  0.14011565  0.90759173     0.03000
C508        C  0.77495003  0.15887090  0.92885936    -0.12200
C509        C  0.74957626  0.15711723  0.94331278    -0.03300
C510        C  0.73111626  0.13490064  0.93743290     0.02200
C511        C  0.76570403  0.10241862  0.87500585     0.09000
N512        N  0.80697185  0.14315258  0.89280810     0.65400
H513        H  0.78964620  0.17541975  0.93353166     0.18300
N514        N  0.70474966  0.13270158  0.95108380     0.75900
H515        H  0.72260285  0.09997683  0.91053123     0.09800
C516        C  0.77004892  0.07325050  0.87621002     0.03500
C517        C  0.77067213  0.05789969  0.85150190    -0.05200
C518        C  0.76653943  0.07109373  0.82531139    -0.23600
C519        C  0.76297573  0.10055714  0.82416435     0.12800
C520        C  0.76259393  0.11590439  0.84897996    -0.12700
N521        N  0.77331938  0.05887985  0.90239324     0.64400
H522        H  0.77334034  0.03530939  0.85303326     0.12300
N523        N  0.75959398  0.11522178  0.79815376     0.61100
H524        H  0.75912752  0.13842255  0.84799079     0.08500
O525        O  0.70180974  0.11520509  0.97079976    -0.40400
O526        O  0.68343905  0.14425158  0.94022526    -0.39600
O527        O  0.80870950  0.16123511  0.87346237    -0.39600
O528        O  0.82900099  0.13219163  0.90275414    -0.37300
O529        O  0.78096366  0.12336560  0.78516627    -0.38200
O530        O  0.73597918  0.12526242  0.79151614    -0.34300
O531        O  0.75295636  0.04563495  0.91255996    -0.35700
O532        O  0.79752310  0.05476993  0.91228534    -0.40000
C533        C  0.77594186  0.14727222  0.11240326    -0.13700
C534        C  0.77043820  0.12069199  0.10150094     0.16700
C535        C  0.76628802  0.11776325  0.07254549     0.03000
C536        C  0.76604891  0.14166657  0.05517344    -0.12200
C537        C  0.76927514  0.16871561  0.06637688    -0.03300
C538        C  0.77525579  0.17126477  0.09527656     0.02200
C539        C  0.76460159  0.09759483  0.12140008     0.09000
N540        N  0.76080105  0.09086923  0.06075937     0.65400
H541        H  0.76148733  0.13915994  0.03311238     0.18300
N542        N  0.78045538  0.19790855  0.10781258     0.75900
H543        H  0.77924018  0.14960219  0.13471146     0.09800
C544        C  0.78610520  0.08105939  0.13340629     0.03500
C545        C  0.78010459  0.06259559  0.15555091    -0.05200
C546        C  0.75296856  0.06089744  0.16626840    -0.23600
C547        C  0.73130444  0.07685101  0.15369355     0.12800
C548        C  0.73725961  0.09494376  0.13134331    -0.12700
N549        N  0.81426156  0.08376365  0.12417014     0.64400
H550        H  0.79689897  0.05050531  0.16520733     0.12300
N551        N  0.70323130  0.07506786  0.16355236     0.61100
H552        H  0.72064421  0.10777779  0.12233610     0.08500
O553        O  0.76006970  0.21260643  0.11587980    -0.40400
O554        O  0.80431990  0.20242771  0.11813558    -0.39600
O555        O  0.73606094  0.08425050  0.05449388    -0.39600
O556        O  0.78084880  0.07608547  0.05205668    -0.37300
O557        O  0.69300608  0.09517401  0.17719580    -0.38200
O558        O  0.68718832  0.05658644  0.15376893    -0.34300
O559        O  0.83126777  0.09820132  0.13820274    -0.35700
O560        O  0.82328373  0.06774207  0.10535681    -0.40000
C561        C  0.73743972  0.89247900  0.06656194    -0.13700
C562        C  0.74923206  0.88659025  0.09278747     0.16700
C563        C  0.76090133  0.85991429  0.09826429     0.03000
C564        C  0.75976567  0.83936669  0.07768082    -0.12200
C565        C  0.74592366  0.84438217  0.05201753    -0.03300
C566        C  0.73499180  0.87161915  0.04635863     0.02200
C567        C  0.74471205  0.90691085  0.11527304     0.09000
N568        N  0.77116585  0.85235844  0.12547304     0.65400
H569        H  0.76826087  0.81876929  0.08267653     0.18300
N570        N  0.71972387  0.87830903  0.02131620     0.75900
H571        H  0.72812311  0.91295936  0.06254345     0.09800
C572        C  0.76692170  0.91959379  0.12976860     0.03500
C573        C  0.76109715  0.93695333  0.15241654    -0.05200
C574        C  0.73340579  0.94293002  0.15981059    -0.23600
C575        C  0.71126677  0.93170333  0.14410945     0.12800
C576        C  0.71707146  0.91319709  0.12250283    -0.12700
N577        N  0.79518925  0.91621277  0.12089768     0.64400
H578        H  0.77824391  0.94621690  0.16397874     0.12300
N579        N  0.68284172  0.93816657  0.15036135     0.61100
H580        H  0.69987917  0.90368721  0.11120765     0.08500
O581        O  0.72614221  0.90010349  0.00762732    -0.40400
O582        O  0.69578875  0.86787581  0.01773615    -0.39600
O583        O  0.75397427  0.84588548  0.14431130    -0.39600
O584        O  0.79657315  0.84574064  0.12863864    -0.37300
O585        O  0.67271671  0.96151154  0.14254894    -0.38200
O586        O  0.66662933  0.91864756  0.15755697    -0.34300
O587        O  0.80341952  0.92966204  0.09967763    -0.35700
O588        O  0.81303276  0.90548935  0.13741862    -0.40000
C589        C  0.24693482  0.09612014  0.13885088    -0.13700
C590        C  0.22564308  0.11583268  0.14343432     0.16700
C591        C  0.20899647  0.11350470  0.16751600     0.03000
C592        C  0.21506266  0.09249392  0.18740311    -0.12200
C593        C  0.23680195  0.07320935  0.18297721    -0.03300
C594        C  0.25246965  0.07474846  0.15824567     0.02200
C595        C  0.22259231  0.13901395  0.12296703     0.09000
N596        N  0.18549411  0.13162016  0.17160052     0.65400
H597        H  0.20279521  0.09121636  0.20629354     0.18300
N598        N  0.27497804  0.05564823  0.15315970     0.75900
H599        H  0.25980566  0.09777113  0.12035110     0.09800
C600        C  0.23261000  0.16606516  0.12887923     0.03500
C601        C  0.23602173  0.18555911  0.10711672    -0.05200
C602        C  0.22986298  0.17857018  0.07919574    -0.23600
C603        C  0.21859833  0.15171962  0.07369121     0.12800
C604        C  0.21501021  0.13240028  0.09555093    -0.12700
N605        N  0.24189166  0.17318478  0.15636629     0.64400
H606        H  0.24483374  0.20585380  0.11205909     0.12300
N607        N  0.21281719  0.14265678  0.04592023     0.61100
H608        H  0.20776432  0.11141339  0.09083235     0.08500
O609        O  0.29967851  0.06305894  0.15858306    -0.40400
O610        O  0.27096245  0.03507514  0.13720869    -0.39600
O611        O  0.16243629  0.12556647  0.16026781    -0.39600
O612        O  0.18591963  0.14906924  0.19129718    -0.37300
O613        O  0.22734383  0.12301361  0.03592658    -0.38200
O614        O  0.18959467  0.14878715  0.03471746    -0.34300
O615        O  0.26680172  0.16788194  0.16356240    -0.35700
O616        O  0.22755653  0.18998888  0.17072196    -0.40000
C617        C  0.07956342  0.29051536  0.11644554    -0.13700
C618        C  0.08245791  0.26465247  0.10291883     0.16700
C619        C  0.06704914  0.24147487  0.11265803     0.03000
C620        C  0.05140983  0.24376026  0.13713558    -0.12200
C621        C  0.05049520  0.26900497  0.15220367    -0.03300
C622        C  0.06337074  0.29302930  0.14060370     0.02200
C623        C  0.10545705  0.26114536  0.08257667     0.09000
N624        N  0.06796737  0.21517366  0.09849805     0.65400
H625        H  0.04096622  0.22521739  0.14507619     0.18300
N626        N  0.06256004  0.31948876  0.15435710     0.75900
H627        H  0.09146501  0.30848388  0.10936386     0.09800
C628        C  0.10801744  0.27861735  0.05886533     0.03500
C629        C  0.13261295  0.27800569  0.04317543    -0.05200
C630        C  0.15515007  0.26019076  0.05062814    -0.23600
C631        C  0.15189093  0.24180649  0.07374294     0.12800
C632        C  0.12731912  0.24255024  0.08941172    -0.12700
N633        N  0.08585417  0.29717174  0.05051486     0.64400
H634        H  0.13420391  0.29213601  0.02538486     0.12300
N635        N  0.17345118  0.22276964  0.08233612     0.61100
H636        H  0.12592834  0.22939759  0.10795356     0.08500
O637        O  0.04209391  0.33582431  0.15002470    -0.40400
O638        O  0.08481273  0.32915427  0.16458364    -0.39600
O639        O  0.08044817  0.19449121  0.10971287    -0.39600
O640        O  0.05168353  0.21113498  0.07808562    -0.37300
O641        O  0.19091643  0.23054178  0.10052792    -0.38200
O642        O  0.17000492  0.19686001  0.07831913    -0.34300
O643        O  0.08821160  0.32322651  0.05448302    -0.35700
O644        O  0.06700755  0.28839667  0.03427345    -0.40000
C645        C  0.88015373  0.23104606  0.08928791    -0.13700
C646        C  0.87795852  0.24758287  0.11316114     0.16700
C647        C  0.85271598  0.26145809  0.11893374     0.03000
C648        C  0.83018148  0.25901421  0.10045576    -0.12200
C649        C  0.83219544  0.24262731  0.07613926    -0.03300
C650        C  0.85758306  0.22827003  0.07082219     0.02200
C651        C  0.90239632  0.25020254  0.13170856     0.09000
N652        N  0.84957247  0.27777772  0.14366808     0.65400
H653        H  0.81108542  0.27030823  0.10516022     0.18300
N654        N  0.86118137  0.21114513  0.04672610     0.75900
H655        H  0.89964196  0.22027849  0.08491428     0.09800
C656        C  0.91193197  0.22710998  0.14757591     0.03500
C657        C  0.93463453  0.23021119  0.16558461    -0.05200
C658        C  0.94846670  0.25608641  0.16808604    -0.23600
C659        C  0.93990321  0.27877782  0.15071005     0.12800
C660        C  0.91670335  0.27576582  0.13298658    -0.12700
N661        N  0.89786216  0.20073398  0.14667038     0.64400
H662        H  0.94048471  0.21248097  0.17868639     0.12300
N663        N  0.95414338  0.30504095  0.15106558     0.61100
H664        H  0.90980864  0.29341308  0.12017135     0.08500
O665        O  0.88072202  0.21664126  0.03001636    -0.40400
O666        O  0.84991006  0.18725827  0.04601685    -0.39600
O667        O  0.84931647  0.30425035  0.14193469    -0.39600
O668        O  0.84201209  0.26594317  0.16605446    -0.37300
O669        O  0.94326683  0.32573540  0.16324136    -0.38200
O670        O  0.97487010  0.30880454  0.13534636    -0.34300
O671        O  0.90748648  0.18128977  0.13171384    -0.35700
O672        O  0.87962621  0.19512569  0.16476030    -0.40000
C673        C  0.87491355  0.08507045  0.23071792    -0.13700
C674        C  0.86837295  0.11381318  0.23099263     0.16700
C675        C  0.84034805  0.12242179  0.22701519     0.03000
C676        C  0.81918604  0.10230933  0.22589281    -0.12200
C677        C  0.82547585  0.07352239  0.22746827    -0.03300
C678        C  0.85379307  0.06489504  0.22855170     0.02200
C679        C  0.89065962  0.13441184  0.23722631     0.09000
N680        N  0.83315261  0.15144630  0.22345005     0.65400
H681        H  0.79761615  0.10924079  0.22420308     0.18300
N682        N  0.86137952  0.03581738  0.22952029     0.75900
H683        H  0.89642369  0.07822761  0.23330619     0.09800
C684        C  0.88912541  0.15164066  0.26103243     0.03500
C685        C  0.90904110  0.17252514  0.26511220    -0.05200
C686        C  0.93165394  0.17556744  0.24695403    -0.23600
C687        C  0.93477256  0.15668835  0.22462421     0.12800
C688        C  0.91386084  0.13670024  0.21952998    -0.12700
N689        N  0.86846343  0.14717423  0.28206072     0.64400
H690        H  0.90706970  0.18631149  0.28291558     0.12300
N691        N  0.95873255  0.15763290  0.20695903     0.61100
H692        H  0.91572544  0.12287981  0.20175008     0.08500
O693        O  0.86714307  0.02333148  0.20711296    -0.40400
O694        O  0.86755750  0.02434378  0.25263988    -0.39600
O695        O  0.83844781  0.16348169  0.20050306    -0.39600
O696        O  0.81613654  0.16280154  0.23998358    -0.37300
O697        O  0.95553567  0.16014837  0.18084721    -0.38200
O698        O  0.98207420  0.14954525  0.21658695    -0.34300
O699        O  0.87072593  0.12597007  0.29795450    -0.35700
O700        O  0.85289414  0.16729825  0.28927860    -0.40000
C701        C  0.08757052  0.12677780  0.22786048    -0.13700
C702        C  0.09659500  0.11537681  0.25350846     0.16700
C703        C  0.08399398  0.12501078  0.27826963     0.03000
C704        C  0.06403985  0.14680589  0.27714129    -0.12200
C705        C  0.05642338  0.15976308  0.25161520    -0.03300
C706        C  0.06775149  0.14867411  0.22664401     0.02200
C707        C  0.12206303  0.09709896  0.25425728     0.09000
N708        N  0.09186413  0.11339002  0.30484625     0.65400
H709        H  0.05560084  0.15457035  0.29658284     0.18300
N710        N  0.06038947  0.16013671  0.19985765     0.75900
H711        H  0.09714676  0.11973856  0.20866917     0.09800
C712        C  0.12314077  0.07047074  0.24151610     0.03500
C713        C  0.14834747  0.05500350  0.24129899    -0.05200
C714        C  0.17301194  0.06586197  0.25312330    -0.23600
C715        C  0.17187300  0.09303575  0.26513235     0.12800
C716        C  0.14660252  0.10799361  0.26588310    -0.12700
N717        N  0.09868401  0.05861971  0.22920689     0.64400
H718        H  0.14849054  0.03429746  0.23206603     0.12300
N719        N  0.19625166  0.10609630  0.27643178     0.61100
H720        H  0.14634087  0.12879628  0.27493563     0.08500
O721        O  0.07626536  0.17782515  0.18838047    -0.40400
O722        O  0.04161719  0.14847064  0.18548549    -0.39600
O723        O  0.10771694  0.12707951  0.32084859    -0.39600
O724        O  0.07868768  0.09258865  0.31444066    -0.37300
O725        O  0.21411664  0.11675637  0.26027754    -0.38200
O726        O  0.19935661  0.10806632  0.30255989    -0.34300
O727        O  0.09565872  0.05917624  0.20298374    -0.35700
O728        O  0.08317384  0.04303685  0.24378063    -0.40000
C729        C  0.24679435  0.88951452  0.07162836    -0.13700
C730        C  0.25528880  0.88772370  0.09965694     0.16700
C731        C  0.25884532  0.86110406  0.11232475     0.03000
C732        C  0.25556390  0.83696441  0.09630034    -0.12200
C733        C  0.24683301  0.83848343  0.06815374    -0.03300
C734        C  0.24207169  0.86524147  0.05599085     0.02200
C735        C  0.25902781  0.91377495  0.11576618     0.09000
N736        N  0.26375566  0.85815950  0.14178772     0.65400
H737        H  0.25907373  0.81676455  0.10638459     0.18300
N738        N  0.23191362  0.86830839  0.02806828     0.75900
H739        H  0.24339424  0.90993620  0.06193731     0.09800
C740        C  0.28463577  0.92009802  0.12901622     0.03500
C741        C  0.28619688  0.94282610  0.14713760    -0.05200
C742        C  0.26275739  0.95975154  0.15180960    -0.23600
C743        C  0.23804096  0.95526573  0.13647104     0.12800
C744        C  0.23617261  0.93205853  0.11884624    -0.12700
N745        N  0.30937773  0.90418215  0.12373525     0.64400
H746        H  0.30545293  0.94643358  0.15862137     0.12300
N747        N  0.21524612  0.97472224  0.13784253     0.61100
H748        H  0.21670257  0.92799755  0.10794166     0.08500
O749        O  0.24737627  0.87932906  0.00980291    -0.40400
O750        O  0.20594530  0.86687682  0.02367365    -0.39600
O751        O  0.24529110  0.86637052  0.15861739    -0.39600
O752        O  0.28322168  0.84235487  0.15064135    -0.37300
O753        O  0.21617360  0.99719150  0.12368725    -0.38200
O754        O  0.19243562  0.96727695  0.14855288    -0.34300
O755        O  0.32300290  0.90964455  0.10190211    -0.35700
O756        O  0.32145895  0.89148069  0.14373583    -0.40000
C757        C  0.10649262  0.73172122  0.85919106    -0.13700
C758        C  0.09598354  0.75002892  0.87938007     0.16700
C759        C  0.07122997  0.76514607  0.87392444     0.03000
C760        C  0.05704920  0.76131835  0.84860052    -0.12200
C761        C  0.06752122  0.74303568  0.82813813    -0.03300
C762        C  0.09267493  0.72824577  0.83363439     0.02200
C763        C  0.11257793  0.75427193  0.90500122     0.09000
N764        N  0.06107782  0.78550929  0.89318776     0.65400
H765        H  0.03805332  0.77327817  0.84471424     0.18300
N766        N  0.10428577  0.70926778  0.81383353     0.75900
H767        H  0.12577388  0.72026117  0.86323023     0.09800
C768        C  0.10528118  0.74183625  0.93071431     0.03500
C769        C  0.12417146  0.74245479  0.95319593    -0.05200
C770        C  0.15031426  0.75540175  0.95041641    -0.23600
C771        C  0.15689379  0.76908132  0.92482583     0.12800
C772        C  0.13793336  0.76839322  0.90256700    -0.12700
N773        N  0.07948890  0.72724373  0.93386009     0.64400
H774        H  0.11864458  0.73210496  0.97263616     0.12300
N775        N  0.18337834  0.78208788  0.92015491     0.61100
H776        H  0.14365240  0.77779385  0.88269522     0.08500
O777        O  0.10041085  0.68323367  0.81689012    -0.40400
O778        O  0.12291598  0.71779009  0.79731612    -0.39600
O779        O  0.07051886  0.81019498  0.89220508    -0.39600
O780        O  0.03891164  0.78073347  0.90648363    -0.37300
O781        O  0.20418879  0.76693232  0.91429427    -0.38200
O782        O  0.18412283  0.80793915  0.91418654    -0.34300
O783        O  0.07860153  0.70125549  0.92897975    -0.35700
O784        O  0.05989596  0.73857076  0.94729919    -0.40000
C785        C  0.90873104  0.86369799  0.21344223    -0.13700
C786        C  0.88172218  0.85946180  0.22400600     0.16700
C787        C  0.87536239  0.83307542  0.23610259     0.03000
C788        C  0.89599957  0.81226198  0.23816621    -0.12200
C789        C  0.92381850  0.81777323  0.23096311    -0.03300
C790        C  0.92985158  0.84342364  0.21723332     0.02200
C791        C  0.86054564  0.88260986  0.22255755     0.09000
N792        N  0.84880128  0.82776257  0.24858002     0.65400
H793        H  0.89051214  0.79226057  0.24742703     0.18300
N794        N  0.95716164  0.84925836  0.20690052     0.75900
H795        H  0.91367359  0.88309896  0.20262307     0.09800
C796        C  0.86710132  0.91026983  0.23089352     0.03500
C797        C  0.84620438  0.93091485  0.23131019    -0.05200
C798        C  0.81835304  0.92425869  0.22533172    -0.23600
C799        C  0.81171477  0.89691728  0.21658415     0.12800
C800        C  0.83298401  0.87677476  0.21404648    -0.12700
N801        N  0.89418745  0.91721478  0.24144559     0.64400
H802        H  0.85142392  0.95175381  0.23862186     0.12300
N803        N  0.78346660  0.88901102  0.21105710     0.61100
H804        H  0.82761592  0.85604708  0.20663546     0.08500
O805        O  0.96384684  0.84107445  0.18282377    -0.40400
O806        O  0.97250630  0.86660685  0.21947353    -0.39600
O807        O  0.83400252  0.80771446  0.23995848    -0.39600
O808        O  0.84226756  0.84005529  0.27089538    -0.37300
O809        O  0.77599697  0.88391384  0.18630389    -0.38200
O810        O  0.76844292  0.88061831  0.23098742    -0.34300
O811        O  0.90920091  0.93430660  0.22805565    -0.35700
O812        O  0.90043677  0.91112953  0.26645668    -0.40000
C813        C  0.13945272  0.90401020  0.22924048    -0.13700
C814        C  0.11907946  0.90209068  0.24990836     0.16700
C815        C  0.11800427  0.92253319  0.27094100     0.03000
C816        C  0.13808113  0.94383605  0.27174117    -0.12200
C817        C  0.15975476  0.94488001  0.25204383    -0.03300
C818        C  0.16000834  0.92477129  0.23025601     0.02200
C819        C  0.10162197  0.87661035  0.25103268     0.09000
N820        N  0.09702844  0.92146713  0.29200414     0.65400
H821        H  0.13728457  0.95895018  0.28852786     0.18300
N822        N  0.18230194  0.92316677  0.21055606     0.75900
H823        H  0.14063393  0.88798704  0.21331134     0.09800
C824        C  0.08100287  0.87142811  0.23070670     0.03500
C825        C  0.06595545  0.84636247  0.23161385    -0.05200
C826        C  0.07147554  0.82571135  0.25215355    -0.23600
C827        C  0.09284729  0.83065758  0.27206598     0.12800
C828        C  0.10754011  0.85604137  0.27140432    -0.12700
N829        N  0.07483524  0.89161448  0.20924430     0.64400
H830        H  0.04955626  0.84323976  0.21629692     0.12300
N831        N  0.09945247  0.81067207  0.29357578     0.61100
H832        H  0.12388559  0.85962872  0.28674918     0.08500
O833        O  0.17663212  0.92409757  0.18476912    -0.40400
O834        O  0.20567587  0.91339958  0.21841437    -0.39600
O835        O  0.10293985  0.91148224  0.31585778    -0.39600
O836        O  0.07432968  0.93464632  0.28831342    -0.37300
O837        O  0.12080667  0.79526310  0.29099868    -0.38200
O838        O  0.08875462  0.81355361  0.31741558    -0.34300
O839        O  0.08333901  0.88740627  0.18471911    -0.35700
O840        O  0.05652239  0.91025433  0.21343064    -0.40000
C841        C  0.84543031  0.76219858  0.11923100    -0.13700
C842        C  0.87229873  0.76502782  0.10805992     0.16700
C843        C  0.87547484  0.77020745  0.07934743     0.03000
C844        C  0.85194280  0.77173728  0.06209055    -0.12200
C845        C  0.82496984  0.76741747  0.07280503    -0.03300
C846        C  0.82175693  0.76323731  0.10188449     0.02200
C847        C  0.89677146  0.75999651  0.12625703     0.09000
N848        N  0.90255646  0.77291639  0.06725753     0.65400
H849        H  0.85510097  0.77490002  0.03987852     0.18300
N850        N  0.79488022  0.75913796  0.11404999     0.75900
H851        H  0.84290619  0.75796126  0.14136490     0.09800
C852        C  0.90241812  0.77753863  0.14902025     0.03500
C853        C  0.92377983  0.77034625  0.16768939    -0.05200
C854        C  0.93941450  0.74550311  0.16454603    -0.23600
C855        C  0.93448434  0.72847119  0.14109426     0.12800
C856        C  0.91329348  0.73593634  0.12206579    -0.12700
N857        N  0.88625284  0.80237504  0.15379123     0.64400
H858        H  0.92765573  0.78400688  0.18516751     0.12300
N859        N  0.94908634  0.70249201  0.13754596     0.61100
H860        H  0.90868023  0.72207274  0.10480873     0.08500
O861        O  0.78697429  0.73456824  0.11998790    -0.40400
O862        O  0.78213864  0.77982850  0.12437844    -0.39600
O863        O  0.91325814  0.75231415  0.05471358    -0.39600
O864        O  0.91307962  0.79699281  0.06432488    -0.37300
O865        O  0.94237384  0.68130074  0.15198064    -0.38200
O866        O  0.96590864  0.69970539  0.11755852    -0.34300
O867        O  0.86717747  0.80193357  0.17186267    -0.35700
O868        O  0.89483785  0.82569049  0.14462789    -0.40000
C869        C  0.07701318  0.78762887  0.13503175    -0.13700
C870        C  0.10168170  0.77156624  0.13341641     0.16700
C871        C  0.10697511  0.75069797  0.15390323     0.03000
C872        C  0.08822824  0.74657162  0.17561916    -0.12200
C873        C  0.06361323  0.76256541  0.17763311    -0.03300
C874        C  0.05789446  0.78324578  0.15690221     0.02200
C875        C  0.12296848  0.77753495  0.11173603     0.09000
N876        N  0.13117351  0.73300725  0.15273586     0.65400
H877        H  0.09302968  0.73029589  0.19092510     0.18300
N878        N  0.03360315  0.80075349  0.15837314     0.75900
H879        H  0.07289054  0.80399497  0.11963895     0.09800
C880        C  0.11810802  0.77295466  0.08303574     0.03500
C881        C  0.14062125  0.77344471  0.06426868    -0.05200
C882        C  0.16807486  0.77809543  0.07382931    -0.23600
C883        C  0.17223848  0.78530022  0.10218180     0.12800
C884        C  0.14970392  0.78536185  0.12058429    -0.12700
N885        N  0.09093388  0.76570455  0.07301665     0.64400
H886        H  0.13691440  0.76787951  0.04264174     0.12300
N887        N  0.19924742  0.79207295  0.11300676     0.61100
H888        H  0.15346022  0.78998891  0.14243559     0.08500
O889        O  0.01167277  0.79375322  0.14547366    -0.40400
O890        O  0.03593475  0.82558874  0.16704873    -0.39600
O891        O  0.15195089  0.73842176  0.16812081    -0.39600
O892        O  0.12884988  0.70870745  0.14268020    -0.37300
O893        O  0.20324411  0.81660707  0.12190061    -0.38200
O894        O  0.21506633  0.77248289  0.12162927    -0.34300
O895        O  0.07612649  0.78402075  0.06060570    -0.35700
O896        O  0.08374467  0.74025424  0.07238072    -0.40000
C897        C  0.90409695  0.20827456  0.86037325    -0.13700
C898        C  0.88621599  0.23083325  0.86607617     0.16700
C899        C  0.89057871  0.25718338  0.85333258     0.03000
C900        C  0.91157071  0.26002502  0.83365059    -0.12200
C901        C  0.92947049  0.23750603  0.82770734    -0.03300
C902        C  0.92621605  0.21154397  0.84176406     0.02200
C903        C  0.86390430  0.22697369  0.88643553     0.09000
N904        N  0.87534122  0.28163422  0.86167205     0.65400
H905        H  0.91463236  0.28034947  0.82372628     0.18300
N906        N  0.94465008  0.18829832  0.83715990     0.75900
H907        H  0.90108896  0.18820973  0.87079222     0.09800
C908        C  0.83567465  0.23065229  0.87883735     0.03500
C909        C  0.81541636  0.23081185  0.89954854    -0.05200
C910        C  0.82292823  0.22746643  0.92779186    -0.23600
C911        C  0.85108788  0.22195651  0.93506320     0.12800
C912        C  0.87131786  0.22178947  0.91431688    -0.12700
N913        N  0.82738202  0.23475901  0.85030307     0.64400
H914        H  0.79381810  0.23451227  0.89353081     0.12300
N915        N  0.85991160  0.21914570  0.96351429     0.61100
H916        H  0.89310381  0.21904842  0.92015668     0.08500
O917        O  0.93460247  0.16501208  0.82985051    -0.40400
O918        O  0.96900922  0.18886965  0.84738925    -0.39600
O919        O  0.87947392  0.29142264  0.88576963    -0.39600
O920        O  0.86333926  0.29680073  0.84338349    -0.37300
O921        O  0.85809322  0.19572197  0.97591285    -0.38200
O922        O  0.86845524  0.24038798  0.97658062    -0.34300
O923        O  0.82739045  0.21410343  0.83395290    -0.35700
O924        O  0.81490885  0.25713419  0.84306784    -0.40000
C925        C  0.08988328  0.22299353  0.87410068    -0.13700
C926        C  0.11819054  0.22502354  0.86756833     0.16700
C927        C  0.12650425  0.22564207  0.83941971     0.03000
C928        C  0.10626025  0.22590314  0.81818964    -0.12200
C929        C  0.07767680  0.22580431  0.82461982    -0.03300
C930        C  0.06956857  0.22331352  0.85297501     0.02200
C931        C  0.13853267  0.22891075  0.89037718     0.09000
N932        N  0.15540088  0.22668759  0.83217109     0.65400
H933        H  0.11293859  0.22734654  0.79662622     0.18300
N934        N  0.04084729  0.22297759  0.86091097     0.75900
H935        H  0.08346115  0.22244570  0.89578580     0.09800
C936        C  0.14981888  0.25561211  0.89558266     0.03500
C937        C  0.16992911  0.25864765  0.91649102    -0.05200
C938        C  0.17844242  0.23566344  0.93298418    -0.23600
C939        C  0.16590879  0.20927290  0.92904655     0.12800
C940        C  0.14628965  0.20599320  0.90741603    -0.12700
N941        N  0.14037925  0.27997324  0.88047177     0.64400
H942        H  0.17878154  0.27922325  0.92011335     0.12300
N943        N  0.17328093  0.18564065  0.94626243     0.61100
H944        H  0.13708820  0.18556952  0.90386610     0.08500
O945        O  0.02909345  0.24548613  0.86833819    -0.40400
O946        O  0.02915960  0.19977922  0.86581563    -0.39600
O947        O  0.16955819  0.20425213  0.83172654    -0.39600
O948        O  0.16528934  0.24879079  0.82147907    -0.37300
O949        O  0.16298811  0.18350296  0.97039554    -0.38200
O950        O  0.18453686  0.16439330  0.93535982    -0.34300
O951        O  0.11853332  0.29248510  0.88835991    -0.35700
O952        O  0.15695521  0.29254270  0.86429902    -0.40000
C953        C  0.89303215  0.14723313  0.76771522    -0.13700
C954        C  0.90518276  0.12037694  0.76634375     0.16700
C955        C  0.93454594  0.11801283  0.76565358     0.03000
C956        C  0.95105570  0.14228601  0.76531798    -0.12200
C957        C  0.93885365  0.16925936  0.76523261    -0.03300
C958        C  0.90939584  0.17153330  0.76712466     0.02200
C959        C  0.88652899  0.09576619  0.76231973     0.09000
N960        N  0.94791044  0.09111868  0.76487950     0.65400
H961        H  0.97353425  0.13992929  0.76390335     0.18300
N962        N  0.89553929  0.19824719  0.76751634     0.75900
H963        H  0.87048694  0.14946390  0.76778581     0.09800
C964        C  0.86436575  0.09032352  0.78079701     0.03500
C965        C  0.84339099  0.07137994  0.77330732    -0.05200
C966        C  0.84398614  0.05723601  0.74760024    -0.23600
C967        C  0.86711645  0.06135899  0.72985719     0.12800
C968        C  0.88807594  0.08050572  0.73734591    -0.12700
N969        N  0.86273926  0.10414326  0.80716166     0.64400
H970        H  0.82626551  0.06806939  0.78764531     0.12300
N971        N  0.86848481  0.04825375  0.70313697     0.61100
H972        H  0.90459708  0.08492237  0.72260792     0.08500
O973        O  0.88483415  0.20663172  0.78999509    -0.40400
O974        O  0.88777753  0.20946721  0.74472998    -0.39600
O975        O  0.95913805  0.08301550  0.74254108    -0.39600
O976        O  0.95359518  0.07846826  0.78752037    -0.37300
O977        O  0.85259037  0.05669313  0.68360862    -0.38200
O978        O  0.88838071  0.03168067  0.69778990    -0.34300
O979        O  0.84375375  0.12212214  0.81126220    -0.35700
O980        O  0.87664364  0.09460966  0.82768941    -0.40000
C981        C  0.25515057  0.92895043  0.87657942    -0.13700
C982        C  0.24921212  0.90035913  0.87461118     0.16700
C983        C  0.24055283  0.88919748  0.84885548     0.03000
C984        C  0.23920048  0.90659849  0.82511595    -0.12200
C985        C  0.24607296  0.93521886  0.82675550    -0.03300
C986        C  0.25361174  0.94646920  0.85301716     0.02200
C987        C  0.25144667  0.88276244  0.89998824     0.09000
N988        N  0.23348891  0.86019341  0.84647913     0.65400
H989        H  0.23340532  0.89757938  0.80518326     0.18300
N990        N  0.26197368  0.97503522  0.85588017     0.75900
H991        H  0.26157041  0.93762151  0.89648377     0.09800
C992        C  0.27678147  0.86969660  0.90785633     0.03500
C993        C  0.27800353  0.85301686  0.93206566    -0.05200
C994        C  0.25425100  0.84919245  0.94868903    -0.23600
C995        C  0.22931071  0.86394387  0.94168760     0.12800
C996        C  0.22822424  0.88047558  0.91735979    -0.12700
N997        N  0.30127229  0.87284924  0.89124162     0.64400
H998        H  0.29726088  0.84190747  0.93711721     0.12300
N999        N  0.20558660  0.86411165  0.95975732     0.61100
H1000       H  0.20907192  0.89157866  0.91192000     0.08500
O1001       O  0.28759833  0.98044147  0.85884784    -0.40400
O1002       O  0.24411313  0.99300256  0.86333015    -0.39600
O1003       O  0.20813930  0.85307602  0.84605570    -0.39600
O1004       O  0.25207535  0.84253019  0.84006332    -0.37300
O1005       O  0.19674918  0.88734457  0.96879811    -0.38200
O1006       O  0.18963585  0.84313321  0.96062979    -0.34300
O1007       O  0.32003502  0.88971748  0.89883976    -0.35700
O1008       O  0.30656436  0.85513229  0.87251739    -0.40000
C1009       C  0.23508893  0.08680152  0.85950187    -0.13700
C1010       C  0.25876260  0.09845395  0.87208577     0.16700
C1011       C  0.28546225  0.08792641  0.86559542     0.03000
C1012       C  0.28817820  0.06650984  0.84595911    -0.12200
C1013       C  0.26457095  0.05553296  0.83251052    -0.03300
C1014       C  0.23773585  0.06529735  0.83990967     0.02200
C1015       C  0.25520193  0.12178190  0.89178728     0.09000
N1016       N  0.31001088  0.09946259  0.87805445     0.65400
H1017       H  0.30890006  0.05932614  0.84027294     0.18300
N1018       N  0.21300930  0.05304403  0.82846787     0.75900
H1019       H  0.21447700  0.09443940  0.86497879     0.09800
C1020       C  0.25232554  0.14961916  0.88207580     0.03500
C1021       C  0.24992216  0.17154120  0.90121396    -0.05200
C1022       C  0.24961535  0.16604783  0.93011333    -0.23600
C1023       C  0.25114588  0.13789588  0.93964545     0.12800
C1024       C  0.25413495  0.11605684  0.92048262    -0.12700
N1025       N  0.25197501  0.15585524  0.85281399     0.64400
H1026       H  0.24849788  0.19297110  0.89345025     0.12300
N1027       N  0.24985575  0.13110463  0.96869244     0.61100
H1028       H  0.25578998  0.09455868  0.92801214     0.08500
O1029       O  0.19604117  0.06831955  0.81483631    -0.40400
O1030       O  0.20487093  0.02963802  0.83782717    -0.39600
O1031       O  0.32180615  0.08656556  0.89809037    -0.39600
O1032       O  0.32284710  0.11891216  0.86558621    -0.37300
O1033       O  0.22686599  0.12386915  0.97916611    -0.38200
O1034       O  0.27121759  0.13352079  0.98409308    -0.34300
O1035       O  0.22892488  0.15903958  0.84017656    -0.35700
O1036       O  0.27440540  0.16199705  0.84055555    -0.40000
C1037       C  0.09009542  0.11838605  0.72343278    -0.13700
C1038       C  0.10704389  0.11846209  0.74746531     0.16700
C1039       C  0.10110476  0.13717374  0.76924648     0.03000
C1040       C  0.07904784  0.15619456  0.76631728    -0.12200
C1041       C  0.06270320  0.15698521  0.74185540    -0.03300
C1042       C  0.06799024  0.13754274  0.72041444     0.02200
C1043       C  0.13210576  0.10046051  0.74870583     0.09000
N1044       N  0.11763410  0.13739489  0.79425019     0.65400
H1045       H  0.07510935  0.17088752  0.78304790     0.18300
N1046       N  0.05299555  0.13877889  0.69448166     0.75900
H1047       H  0.09500689  0.10447345  0.70631920     0.09800
C1048       C  0.12999384  0.07105741  0.74816011     0.03500
C1049       C  0.15410438  0.05463903  0.75016920    -0.05200
C1050       C  0.18061906  0.06704746  0.75169790    -0.23600
C1051       C  0.18281960  0.09658392  0.75097155     0.12800
C1052       C  0.15853469  0.11302878  0.74989623    -0.12700
N1053       N  0.10354953  0.05757687  0.74527465     0.64400
H1054       H  0.15202876  0.03197887  0.74972224     0.12300
N1055       N  0.20938148  0.11016117  0.75128178     0.61100
H1056       H  0.16029672  0.13572173  0.74948670     0.08500
O1057       O  0.03757253  0.11860257  0.68741326    -0.40400
O1058       O  0.05868436  0.15769303  0.67682307    -0.39600
O1059       O  0.13504787  0.15682066  0.79805180    -0.39600
O1060       O  0.11123750  0.12148349  0.81441414    -0.37300
O1061       O  0.22094113  0.11642617  0.72844712    -0.38200
O1062       O  0.21844960  0.12063513  0.77369930    -0.34300
O1063       O  0.09615883  0.04839943  0.72169511    -0.35700
O1064       O  0.09063249  0.04973252  0.76684191    -0.40000
C1065       C  0.14617386  0.89880923  0.79322225    -0.13700
C1066       C  0.14089796  0.87715452  0.77426246     0.16700
C1067       C  0.15536062  0.87661032  0.74871198     0.03000
C1068       C  0.17550134  0.89693883  0.74301693    -0.12200
C1069       C  0.18064749  0.91893122  0.76168669    -0.03300
C1070       C  0.16558402  0.91993757  0.78699456     0.02200
C1071       C  0.11859719  0.85657678  0.78000065     0.09000
N1072       N  0.14822691  0.85695280  0.72739524     0.65400
H1073       H  0.18622328  0.89628109  0.72314355     0.18300
N1074       N  0.16965779  0.94209842  0.80656001     0.75900
H1075       H  0.13466573  0.89966496  0.81262836     0.09800
C1076       C  0.12460974  0.82784926  0.78410697     0.03500
C1077       C  0.10300941  0.80820082  0.78266389    -0.05200
C1078       C  0.07527814  0.81675614  0.77739065    -0.23600
C1079       C  0.06910958  0.84573092  0.77642187     0.12800
C1080       C  0.09074347  0.86537069  0.77764593    -0.12700
N1081       N  0.15259570  0.81832052  0.78901449     0.64400
H1082       H  0.10815020  0.78601405  0.78414722     0.12300
N1083       N  0.04137947  0.85567998  0.77184926     0.61100
H1084       H  0.08590888  0.88749626  0.77477065     0.08500
O1085       O  0.18011707  0.93649727  0.83025975    -0.40400
O1086       O  0.15674160  0.96505357  0.80296245    -0.39600
O1087       O  0.12695394  0.86157185  0.71225569    -0.39600
O1088       O  0.16616748  0.83920186  0.71959161    -0.37300
O1089       O  0.02921737  0.86798319  0.79161049    -0.38200
O1090       O  0.03284606  0.85957343  0.74709077    -0.34300
O1091       O  0.16238214  0.81863500  0.81356932    -0.35700
O1092       O  0.16494178  0.80418450  0.77059164    -0.40000
C1093       C  0.91777206  0.62965923  0.77267405    -0.13700
C1094       C  0.91089628  0.62982874  0.80126364     0.16700
C1095       C  0.91038893  0.65597963  0.81506894     0.03000
C1096       C  0.91772685  0.68080899  0.80079640    -0.12200
C1097       C  0.92644483  0.68035949  0.77285971    -0.03300
C1098       C  0.92578405  0.65452578  0.75858253     0.02200
C1099       C  0.90592364  0.60264935  0.81679364     0.09000
N1100       N  0.90332625  0.65763828  0.84394310     0.65400
H1101       H  0.91857129  0.70029544  0.81232119     0.18300
N1102       N  0.93327678  0.65326720  0.72976159     0.75900
H1103       H  0.91811014  0.60994305  0.76153423     0.09800
C1104       C  0.88349207  0.58470525  0.81010116     0.03500
C1105       C  0.87948773  0.55954217  0.82531287    -0.05200
C1106       C  0.89750648  0.55144781  0.84738426    -0.23600
C1107       C  0.92029683  0.56921790  0.85381508     0.12800
C1108       C  0.92428730  0.59431181  0.83847339    -0.12700
N1109       N  0.86400438  0.59220548  0.78850016     0.64400
H1110       H  0.86181345  0.54638363  0.82015249     0.12300
N1111       N  0.93941346  0.56248646  0.87604847     0.61100
H1112       H  0.94201212  0.60741281  0.84354923     0.08500
O1113       O  0.91446046  0.65474924  0.71118909    -0.40400
O1114       O  0.95789651  0.64680807  0.72299365    -0.39600
O1115       O  0.87958575  0.66695104  0.85061191    -0.39600
O1116       O  0.92255670  0.65662916  0.86210774    -0.37300
O1117       O  0.96261963  0.55154083  0.87009966    -0.38200
O1118       O  0.93727500  0.57521212  0.89895257    -0.34300
O1119       O  0.86511880  0.57999923  0.76522275    -0.35700
O1120       O  0.84288474  0.60697846  0.79430507    -0.40000
C1121       C  0.81223933  0.62049045  0.95645127    -0.13700
C1122       C  0.80351593  0.61554794  0.92895030     0.16700
C1123       C  0.78078324  0.63104247  0.91779394     0.03000
C1124       C  0.76943502  0.65324634  0.93312740    -0.12200
C1125       C  0.78099866  0.66066031  0.95908310    -0.03300
C1126       C  0.80189527  0.64330338  0.97128197     0.02200
C1127       C  0.81963589  0.59510173  0.91234051     0.09000
N1128       N  0.77052768  0.62607265  0.89017085     0.65400
H1129       H  0.75341461  0.66635325  0.92346608     0.18300
N1130       N  0.81413297  0.64936573  0.99791298     0.75900
H1131       H  0.82859329  0.60761735  0.96584023     0.09800
C1132       C  0.84891117  0.59748322  0.91006156     0.03500
C1133       C  0.86443440  0.57571674  0.89844448    -0.05200
C1134       C  0.85150307  0.55119663  0.88930323    -0.23600
C1135       C  0.82199150  0.55006296  0.88879142     0.12800
C1136       C  0.80630032  0.57175350  0.90076718    -0.12700
N1137       N  0.86353242  0.62132571  0.92059585     0.64400
H1138       H  0.88642707  0.57740682  0.89828330     0.12300
N1139       N  0.80771207  0.52730669  0.87571918     0.61100
H1140       H  0.78383469  0.56992681  0.90176514     0.08500
O1141       O  0.81031479  0.63236355  0.01785354    -0.40400
O1142       O  0.83485548  0.66560431  0.99904140    -0.39600
O1143       O  0.74746187  0.61376953  0.88692673    -0.39600
O1144       O  0.78121487  0.63898104  0.86976797    -0.37300
O1145       O  0.80703692  0.52615266  0.84937706    -0.38200
O1146       O  0.79081676  0.51265699  0.88967284    -0.34300
O1147       O  0.87717232  0.61902019  0.94318710    -0.35700
O1148       O  0.86876374  0.64149366  0.90423171    -0.40000
C1149       C  0.90288221  0.42574539  0.80315999    -0.13700
C1150       C  0.91208256  0.40149499  0.81721121     0.16700
C1151       C  0.90968574  0.39976805  0.84648869     0.03000
C1152       C  0.89991038  0.42283140  0.86108751    -0.12200
C1153       C  0.89260845  0.44801397  0.84777650    -0.03300
C1154       C  0.89281268  0.44888465  0.81807788     0.02200
C1155       C  0.92737765  0.37951251  0.80203684     0.09000
N1156       N  0.91877502  0.37525970  0.86149075     0.65400
H1157       H  0.90005821  0.42144516  0.88459109     0.18300
N1158       N  0.88258114  0.47291841  0.80293432     0.75900
H1159       H  0.90423257  0.42697770  0.78043608     0.09800
C1160       C  0.91378725  0.35994403  0.78488850     0.03500
C1161       C  0.92913601  0.33766874  0.77340223    -0.05200
C1162       C  0.95779933  0.33436828  0.77944983    -0.23600
C1163       C  0.97134288  0.35476548  0.79578147     0.12800
C1164       C  0.95619191  0.37735464  0.80638865    -0.12700
N1165       N  0.88421765  0.36130295  0.78075665     0.64400
H1166       H  0.91823826  0.32178383  0.76151658     0.12300
N1167       N  0.00052975  0.35312729  0.80172219     0.61100
H1168       H  0.96680257  0.39270181  0.81923701     0.08500
O1169       O  0.89814671  0.48505340  0.78546285    -0.40400
O1170       O  0.85665117  0.47787526  0.80233927    -0.39600
O1171       O  0.94312243  0.37432401  0.87176782    -0.39600
O1172       O  0.90105018  0.35729632  0.86908637    -0.37300
O1173       O  0.01588516  0.37253134  0.79265012    -0.38200
O1174       O  0.00896667  0.33839041  0.82218556    -0.34300
O1175       O  0.87424194  0.37330755  0.75925642    -0.35700
O1176       O  0.86807345  0.35312962  0.79988172    -0.40000
C1177       C  0.77614932  0.37777352  0.93476351    -0.13700
C1178       C  0.80208180  0.37653283  0.92083748     0.16700
C1179       C  0.81458040  0.35001594  0.91726085     0.03000
C1180       C  0.80241680  0.32588530  0.92867860    -0.12200
C1181       C  0.77780158  0.32700706  0.94464627    -0.03300
C1182       C  0.76401244  0.35328425  0.94678137     0.02200
C1183       C  0.81794355  0.40261687  0.91284382     0.09000
N1184       N  0.84059968  0.34740031  0.90310927     0.65400
H1185       H  0.81330552  0.30602760  0.92613930     0.18300
N1186       N  0.73939579  0.35601794  0.96322360     0.75900
H1187       H  0.76622872  0.39800608  0.93789825     0.09800
C1188       C  0.81048507  0.41953565  0.88956691     0.03500
C1189       C  0.82750998  0.44230304  0.88144956    -0.05200
C1190       C  0.85212060  0.44898373  0.89625216    -0.23600
C1191       C  0.85941026  0.43217051  0.91986139     0.12800
C1192       C  0.84248432  0.40929876  0.92768625    -0.12700
N1193       N  0.78597656  0.41349229  0.87358512     0.64400
H1194       H  0.82137305  0.45502149  0.86351000     0.12300
N1195       N  0.88403193  0.43769812  0.93601903     0.61100
H1196       H  0.84867013  0.39647830  0.94553829     0.08500
O1197       O  0.71590936  0.35820676  0.95123231    -0.40400
O1198       O  0.74158121  0.36183643  0.98882681    -0.39600
O1199       O  0.86265253  0.34248298  0.91696819    -0.39600
O1200       O  0.84084316  0.34563740  0.87681754    -0.37300
O1201       O  0.88199382  0.45268638  0.95748851    -0.38200
O1202       O  0.90471033  0.42127695  0.93418404    -0.34300
O1203       O  0.76410984  0.42795143  0.87703113    -0.35700
O1204       O  0.78754256  0.39709868  0.85306322    -0.40000
C1205       C  0.87497885  0.58244450  0.20421125    -0.13700
C1206       C  0.88983983  0.60347526  0.19021294     0.16700
C1207       C  0.89652147  0.60003112  0.16192055     0.03000
C1208       C  0.88945927  0.57518679  0.14824173    -0.12200
C1209       C  0.87479883  0.55391732  0.16218649    -0.03300
C1210       C  0.86706030  0.55787705  0.19030203     0.02200
C1211       C  0.90184847  0.62678910  0.20632790     0.09000
N1212       N  0.91122830  0.62125724  0.14682600     0.65400
H1213       H  0.89603057  0.57230307  0.12780413     0.18300
N1214       N  0.85105313  0.53734137  0.20503293     0.75900
H1215       H  0.86990172  0.58495492  0.22600898     0.09800
C1216       C  0.88708564  0.65191326  0.21097289     0.03500
C1217       C  0.90031746  0.67419305  0.22458105    -0.05200
C1218       C  0.92815850  0.67170067  0.23388773    -0.23600
C1219       C  0.94222080  0.64581704  0.23061364     0.12800
C1220       C  0.92911841  0.62376553  0.21665272    -0.12700
N1221       N  0.85924885  0.65565151  0.20067940     0.64400
H1222       H  0.88922080  0.69398830  0.22653593     0.12300
N1223       N  0.96949002  0.64131316  0.24206869     0.61100
H1224       H  0.94033136  0.60415793  0.21373693     0.08500
O1225       O  0.82531410  0.53517797  0.19966945    -0.40400
O1226       O  0.86053692  0.52698840  0.22755894    -0.39600
O1227       O  0.93645867  0.61722744  0.14045062    -0.39600
O1228       O  0.89760134  0.64075925  0.13488091    -0.37300
O1229       O  0.97205348  0.63630093  0.26790518    -0.38200
O1230       O  0.98958406  0.63604754  0.22597588    -0.34300
O1231       O  0.83895005  0.64965408  0.21627621    -0.35700
O1232       O  0.85510910  0.67068826  0.17919619    -0.40000
C1233       C  0.82945531  0.58972071  0.07855885    -0.13700
C1234       C  0.80558199  0.59857338  0.09288276     0.16700
C1235       C  0.79773445  0.58436442  0.11742088     0.03000
C1236       C  0.81364109  0.56137630  0.12716948    -0.12200
C1237       C  0.83732318  0.55198702  0.11257472    -0.03300
C1238       C  0.84537764  0.56662668  0.08798437     0.02200
C1239       C  0.79080920  0.62433527  0.08318576     0.09000
N1240       N  0.77331268  0.59275945  0.13223186     0.65400
H1241       H  0.80706040  0.55029110  0.14584798     0.18300
N1242       N  0.86919900  0.55842774  0.07196614     0.75900
H1243       H  0.83594469  0.60103473  0.05997728     0.09800
C1244       C  0.80145794  0.65067971  0.09043713     0.03500
C1245       C  0.79070076  0.67489673  0.07784968    -0.05200
C1246       C  0.76973083  0.67362524  0.05725066    -0.23600
C1247       C  0.75733160  0.64747953  0.05143094     0.12800
C1248       C  0.76800009  0.62290862  0.06450776    -0.12700
N1249       N  0.82473512  0.65302828  0.10903383     0.64400
H1250       H  0.80049975  0.69478655  0.08261650     0.12300
N1251       N  0.73593389  0.64517342  0.03063919     0.61100
H1252       H  0.75962742  0.60262261  0.05884251     0.08500
O1253       O  0.89287054  0.56792085  0.07849435    -0.40400
O1254       O  0.86533895  0.55070668  0.04709530    -0.39600
O1255       O  0.74965060  0.58424146  0.12431310    -0.39600
O1256       O  0.77492054  0.61178865  0.15035562    -0.37300
O1257       O  0.74201696  0.63614478  0.00671276    -0.38200
O1258       O  0.71065955  0.64622339  0.03788775    -0.34300
O1259       O  0.84900400  0.65509875  0.09912406    -0.35700
O1260       O  0.82049239  0.65961515  0.13411731    -0.40000
C1261       C  0.88079259  0.41288511  0.19899534    -0.13700
C1262       C  0.90609613  0.40094056  0.19020009     0.16700
C1263       C  0.91936342  0.41281515  0.16654697     0.03000
C1264       C  0.90794507  0.43684302  0.15325436    -0.12200
C1265       C  0.88332329  0.44956367  0.16292027    -0.03300
C1266       C  0.86949834  0.43702670  0.18584858     0.02200
C1267       C  0.91815325  0.37647313  0.20633630     0.09000
N1268       N  0.94363189  0.40001660  0.15483999     0.65400
H1269       H  0.91847405  0.44576740  0.13529711     0.18300
N1270       N  0.84486394  0.44941822  0.19719779     0.75900
H1271       H  0.87029466  0.40408040  0.21702935     0.09800
C1272       C  0.94352421  0.37838703  0.22148760     0.03500
C1273       C  0.95425774  0.35484208  0.23603348    -0.05200
C1274       C  0.94006372  0.32900644  0.23653924    -0.23600
C1275       C  0.91366170  0.32774110  0.22299458     0.12800
C1276       C  0.90313918  0.35121876  0.20802679    -0.12700
N1277       N  0.95802651  0.40443503  0.22365091     0.64400
H1278       H  0.97423214  0.35678949  0.24662877     0.12300
N1279       N  0.89720910  0.30281720  0.22411353     0.61100
H1280       H  0.88314905  0.34960907  0.19739022     0.08500
O1281       O  0.84708656  0.47137348  0.21157926    -0.40400
O1282       O  0.82306513  0.43481103  0.19937384    -0.39600
O1283       O  0.96605303  0.41378099  0.15366650    -0.39600
O1284       O  0.94055814  0.37919049  0.13901115    -0.37300
O1285       O  0.88057450  0.29920772  0.24415509    -0.38200
O1286       O  0.89521394  0.28751697  0.20279669    -0.34300
O1287       O  0.95278481  0.42013869  0.24409033    -0.35700
O1288       O  0.98084058  0.40744050  0.21096164    -0.40000
C1289       C  0.80931012  0.37542202  0.04798133    -0.13700
C1290       C  0.80176494  0.37914038  0.07595654     0.16700
C1291       C  0.78089632  0.36172060  0.08749115     0.03000
C1292       C  0.76942550  0.34014044  0.07148149    -0.12200
C1293       C  0.77963669  0.33436481  0.04474305    -0.03300
C1294       C  0.79974728  0.35247432  0.03279604     0.02200
C1295       C  0.81576561  0.40153324  0.09225903     0.09000
N1296       N  0.77286333  0.36396055  0.11610372     0.65400
H1297       H  0.75458167  0.32602899  0.08117234     0.18300
N1298       N  0.81188581  0.34736896  0.00599948     0.75900
H1299       H  0.82401666  0.38958688  0.03823065     0.09800
C1300       C  0.84500924  0.40579175  0.09076238     0.03500
C1301       C  0.85684447  0.42947477  0.10296980    -0.05200
C1302       C  0.84034979  0.44846195  0.11777234    -0.23600
C1303       C  0.81160938  0.44320233  0.12121852     0.12800
C1304       C  0.79951721  0.42024232  0.10788515    -0.12700
N1305       N  0.86302213  0.38629887  0.07700021     0.64400
H1306       H  0.87896255  0.43334651  0.10041356     0.12300
N1307       N  0.79453223  0.46044892  0.13870630     0.61100
H1308       H  0.77709989  0.41772827  0.10899775     0.08500
O1309       O  0.83041436  0.32853864  0.00389972    -0.40400
O1310       O  0.81126719  0.36684285  0.98795006    -0.39600
O1311       O  0.74827730  0.37146352  0.12198651    -0.39600
O1312       O  0.78828367  0.35330134  0.13494351    -0.37300
O1313       O  0.78943822  0.48565544  0.13203816    -0.38200
O1314       O  0.78087896  0.44922901  0.15826913    -0.34300
O1315       O  0.87029839  0.36396356  0.08953290    -0.35700
O1316       O  0.87623275  0.39406439  0.05555809    -0.40000
C1317       C  0.86711882  0.51509474  0.97837544    -0.13700
C1318       C  0.84531790  0.49883812  0.98897989     0.16700
C1319       C  0.82621387  0.48702541  0.96975226     0.03000
C1320       C  0.83075977  0.48972981  0.94071752    -0.12200
C1321       C  0.85469022  0.50324166  0.93019555    -0.03300
C1322       C  0.87241913  0.51691479  0.94970394     0.02200
C1323       C  0.84355911  0.49495260  0.02008988     0.09000
N1324       N  0.80310799  0.47076785  0.97923778     0.65400
H1325       H  0.81625050  0.47983272  0.92651739     0.18300
N1326       N  0.89754663  0.53066321  0.94149703     0.75900
H1327       H  0.88119343  0.52557873  0.99266728     0.09800
C1328       C  0.86731765  0.48686915  0.03609147     0.03500
C1329       C  0.86683683  0.48837845  0.06531182    -0.05200
C1330       C  0.84294395  0.49721030  0.07976689    -0.23600
C1331       C  0.81845905  0.50347100  0.06384871     0.12800
C1332       C  0.81919307  0.50260256  0.03437853    -0.12700
N1333       N  0.89244196  0.47754098  0.02299701     0.64400
H1334       H  0.88571179  0.48306118  0.07692381     0.12300
N1335       N  0.79246843  0.51019187  0.07665370     0.61100
H1336       H  0.80076177  0.50893326  0.02260536     0.08500
O1337       O  0.91987104  0.51654160  0.94209795    -0.40400
O1338       O  0.89925048  0.55678734  0.94521494    -0.39600
O1339       O  0.77865844  0.48057817  0.97671741    -0.39600
O1340       O  0.80653383  0.44494484  0.98449747    -0.37300
O1341       O  0.78529648  0.53566402  0.07801610    -0.38200
O1342       O  0.77348631  0.49190673  0.07615842    -0.34300
O1343       O  0.91393218  0.49275596  0.02403040    -0.35700
O1344       O  0.89501235  0.45197464  0.01671370    -0.40000
C1345       C  0.06846218  0.58483498  0.16415708    -0.13700
C1346       C  0.08531838  0.59070005  0.18738383     0.16700
C1347       C  0.10876242  0.57348857  0.19287672     0.03000
C1348       C  0.11514134  0.55121068  0.17479033    -0.12200
C1349       C  0.09879106  0.54596974  0.15081088    -0.03300
C1350       C  0.07492755  0.56297851  0.14589306     0.02200
C1351       C  0.07881978  0.61658863  0.20338656     0.09000
N1352       N  0.12674841  0.57891067  0.21610404     0.65400
H1353       H  0.13307038  0.53792391  0.17944833     0.18300
N1354       N  0.05658782  0.55856906  0.12281088     0.75900
H1355       H  0.05024594  0.59785370  0.15979090     0.09800
C1356       C  0.08006903  0.64271928  0.18956715     0.03500
C1357       C  0.06617390  0.66599209  0.20058823    -0.05200
C1358       C  0.05237022  0.66455407  0.22646833    -0.23600
C1359       C  0.05431629  0.63919717  0.24217099     0.12800
C1360       C  0.06660108  0.61514361  0.22999345    -0.12700
N1361       N  0.09466444  0.64548947  0.16366916     0.64400
H1362       H  0.06601538  0.68541177  0.18859206     0.12300
N1363       N  0.04333012  0.63717767  0.26985718     0.61100
H1364       H  0.06598137  0.59515640  0.24097958     0.08500
O1365       O  0.03278270  0.54876403  0.12789207    -0.40400
O1366       O  0.05911192  0.57421835  0.10164056    -0.39600
O1367       O  0.12359506  0.56534826  0.23863011    -0.39600
O1368       O  0.14871520  0.59295598  0.21243810    -0.37300
O1369       O  0.02807597  0.61664556  0.27642198    -0.38200
O1370       O  0.05412164  0.65167865  0.28902832    -0.34300
O1371       O  0.08143108  0.65120734  0.14141192    -0.35700
O1372       O  0.12055080  0.64035965  0.16272475    -0.40000
C1373       C  0.15119535  0.59014449  0.07723885    -0.13700
C1374       C  0.17319227  0.59794528  0.09498520     0.16700
C1375       C  0.17898730  0.58157894  0.11899226     0.03000
C1376       C  0.16355445  0.55713722  0.12416317    -0.12200
C1377       C  0.14183900  0.54892033  0.10609746    -0.03300
C1378       C  0.13541010  0.56597569  0.08252202     0.02200
C1379       C  0.18849182  0.62413726  0.08838488     0.09000
N1380       N  0.20013229  0.58968118  0.13847708     0.65400
H1381       H  0.16869558  0.54432981  0.14234042     0.18300
N1382       N  0.11334788  0.55922619  0.06346820     0.75900
H1383       H  0.14634641  0.60291994  0.05894295     0.09800
C1384       C  0.21437063  0.62398654  0.07434104     0.03500
C1385       C  0.22540789  0.64921642  0.06374480    -0.05200
C1386       C  0.21082206  0.67461752  0.06672078    -0.23600
C1387       C  0.18576538  0.67484719  0.08225479     0.12800
C1388       C  0.17482024  0.64974645  0.09274236    -0.12700
N1389       N  0.22860917  0.59823209  0.06877338     0.64400
H1390       H  0.24449978  0.64866102  0.05171372     0.12300
N1391       N  0.17106356  0.70049793  0.08740247     0.61100
H1392       H  0.15502561  0.65012810  0.10362729     0.08500
O1393       O  0.09372210  0.57669338  0.05992273    -0.40400
O1394       O  0.11841555  0.54243781  0.04396478    -0.39600
O1395       O  0.19356779  0.60486877  0.15892425    -0.39600
O1396       O  0.22318819  0.57669466  0.13893435    -0.37300
O1397       O  0.14718911  0.70454321  0.07668517    -0.38200
O1398       O  0.17968168  0.71664092  0.10633541    -0.34300
O1399       O  0.22671931  0.58768481  0.04473148    -0.35700
O1400       O  0.24794653  0.59010233  0.08503620    -0.40000
C1401       C  0.11363971  0.35274147  0.21362318    -0.13700
C1402       C  0.09861376  0.37802857  0.21601809     0.16700
C1403       C  0.07638305  0.37945958  0.23504214     0.03000
C1404       C  0.06719088  0.35493727  0.24838817    -0.12200
C1405       C  0.07924756  0.32860107  0.24237118    -0.03300
C1406       C  0.10443724  0.32805687  0.22707579     0.02200
C1407       C  0.10326105  0.40117948  0.19561295     0.09000
N1408       N  0.06110127  0.40505167  0.23882634     0.65400
H1409       H  0.04843921  0.35620230  0.26088891     0.18300
N1410       N  0.11963595  0.30233555  0.22339980     0.75900
H1411       H  0.13147682  0.35176704  0.19983247     0.09800
C1412       C  0.12017196  0.42441587  0.20166127     0.03500
C1413       C  0.12252998  0.44641144  0.18200384    -0.05200
C1414       C  0.10831984  0.44562289  0.15612522    -0.23600
C1415       C  0.09067765  0.42261540  0.15061194     0.12800
C1416       C  0.08850865  0.40070058  0.17023196    -0.12700
N1417       N  0.13448477  0.42618900  0.22788481     0.64400
H1418       H  0.13531292  0.46441015  0.18705581     0.12300
N1419       N  0.07343758  0.42173459  0.12618784     0.61100
H1420       H  0.07447929  0.38348904  0.16592912     0.08500
O1421       O  0.12598413  0.29419169  0.19921209    -0.40400
O1422       O  0.12666647  0.28760775  0.24440816    -0.39600
O1423       O  0.04467774  0.41379038  0.21986770    -0.39600
O1424       O  0.06042356  0.41621910  0.26264027    -0.37300
O1425       O  0.04730568  0.42370354  0.12904574    -0.38200
O1426       O  0.08282815  0.41015077  0.10457462    -0.34300
O1427       O  0.15756384  0.41367029  0.23144781    -0.35700
O1428       O  0.12299696  0.43830716  0.24818913    -0.40000
C1429       C  0.19362793  0.41846548  0.11685415    -0.13700
C1430       C  0.18549721  0.40043859  0.09528614     0.16700
C1431       C  0.15957794  0.40483489  0.08185663     0.03000
C1432       C  0.14260797  0.42746356  0.08945517    -0.12200
C1433       C  0.15083669  0.44607778  0.11046425    -0.03300
C1434       C  0.17654496  0.44124721  0.12454974     0.02200
C1435       C  0.20311189  0.37598950  0.08774198     0.09000
N1436       N  0.15002710  0.38609005  0.06071780     0.65400
H1437       H  0.12290402  0.43044524  0.07868739     0.18300
N1438       N  0.18517441  0.45864428  0.14724355     0.75900
H1439       H  0.21327971  0.41482265  0.12772999     0.09800
C1440       C  0.22138159  0.37690570  0.06479659     0.03500
C1441       C  0.23339441  0.35189907  0.05479875    -0.05200
C1442       C  0.22824333  0.32598924  0.06814747    -0.23600
C1443       C  0.21179034  0.32576277  0.09263882     0.12800
C1444       C  0.19912626  0.35055870  0.10188323    -0.12700
N1445       N  0.22778205  0.40309085  0.05155246     0.64400
H1446       H  0.24630699  0.35263014  0.03630508     0.12300
N1447       N  0.20556527  0.30014744  0.10699818     0.61100
H1448       H  0.18516496  0.34974433  0.11961767     0.08500
O1449       O  0.18742493  0.44811834  0.17145612    -0.40400
O1450       O  0.19600741  0.48223862  0.14231463    -0.39600
O1451       O  0.13615714  0.36467895  0.06756433    -0.39600
O1452       O  0.15131819  0.39331917  0.03533021    -0.37300
O1453       O  0.22211569  0.29123469  0.12576340    -0.38200
O1454       O  0.18097075  0.29080386  0.10609968    -0.34300
O1455       O  0.24805504  0.41735405  0.06049345    -0.35700
O1456       O  0.21050553  0.41422244  0.03472640    -0.40000
C1457       C  0.01719936  0.48908407  0.12906349    -0.13700
C1458       C  0.00607392  0.49664578  0.15514933     0.16700
C1459       C  0.02505561  0.50016492  0.17785394     0.03000
C1460       C  0.05409130  0.49755160  0.17368407    -0.12200
C1461       C  0.06485306  0.49243409  0.14705424    -0.03300
C1462       C  0.04612770  0.48830540  0.12456734     0.02200
C1463       C  0.97493509  0.50117780  0.15761788     0.09000
N1464       N  0.01552948  0.50825507  0.20485097     0.65400
H1465       H  0.06834119  0.50118619  0.19096556     0.18300
N1466       N  0.05620590  0.48661113  0.09648976     0.75900
H1467       H  0.00339065  0.48529185  0.11151875     0.09800
C1468       C  0.95937288  0.51597317  0.13679014     0.03500
C1469       C  0.93016882  0.51639600  0.13755066    -0.05200
C1470       C  0.91529537  0.50464475  0.15990025    -0.23600
C1471       C  0.93081006  0.49267390  0.18233756     0.12800
C1472       C  0.96008828  0.48978088  0.18033834    -0.12700
N1473       N  0.97264734  0.53201831  0.11532297     0.64400
H1474       H  0.91895995  0.52602135  0.12017404     0.12300
N1475       N  0.91768898  0.48514596  0.20799875     0.61100
H1476       H  0.97114777  0.47858765  0.19681852     0.08500
O1477       O  0.06247386  0.50881130  0.08340608    -0.40400
O1478       O  0.05526894  0.46368008  0.08353229    -0.39600
O1479       O  0.01715626  0.49086827  0.22488271    -0.39600
O1480       O  0.01199612  0.53398098  0.21000252    -0.37300
O1481       O  0.92009944  0.46030063  0.21703523    -0.38200
O1482       O  0.91270341  0.50437422  0.22525004    -0.34300
O1483       O  0.97120885  0.52359685  0.09041187    -0.35700
O1484       O  0.97693258  0.55776292  0.11962286    -0.40000
C1485       C  0.11821231  0.57705233  0.79470769    -0.13700
C1486       C  0.09743357  0.59467068  0.80543847     0.16700
C1487       C  0.08991117  0.59171443  0.83387980     0.03000
C1488       C  0.10151782  0.57002619  0.85018249    -0.12200
C1489       C  0.12158973  0.55184395  0.83912105    -0.03300
C1490       C  0.13055613  0.55602063  0.81135502     0.02200
C1491       C  0.08180692  0.61409737  0.78639503     0.09000
N1492       N  0.07023904  0.61039466  0.84642839     0.65400
H1493       H  0.09391690  0.56671920  0.87118869     0.18300
N1494       N  0.15102767  0.53806234  0.79913789     0.75900
H1495       H  0.12395000  0.57859705  0.77290094     0.09800
C1496       C  0.09521429  0.63377499  0.76879982     0.03500
C1497       C  0.07926676  0.65437036  0.75472406    -0.05200
C1498       C  0.05018193  0.65579548  0.75815724    -0.23600
C1499       C  0.03667142  0.63395350  0.77278011     0.12800
C1500       C  0.05252121  0.61312583  0.78628194    -0.12700
N1501       N  0.12497591  0.63455851  0.76665772     0.64400
H1502       H  0.08998414  0.67101001  0.74359255     0.12300
N1503       N  0.00694053  0.63343895  0.77542154     0.61100
H1504       H  0.04183488  0.59687923  0.79798732     0.08500
O1505       O  0.17485405  0.54785407  0.79387842    -0.40400
O1506       O  0.14297627  0.51669115  0.78607702    -0.39600
O1507       O  0.04661254  0.60134241  0.85366901    -0.39600
O1508       O  0.07845911  0.63382100  0.85536852    -0.37300
O1509       O  0.99316953  0.61639981  0.76079746    -0.38200
O1510       O  0.99580798  0.64372167  0.79690234    -0.34300
O1511       O  0.13648224  0.62650397  0.74444295    -0.35700
O1512       O  0.13907632  0.64800951  0.78439269    -0.40000
C1513       C  0.20202710  0.58331125  0.89560698    -0.13700
C1514       C  0.18591320  0.60108949  0.91238277     0.16700
C1515       C  0.15738422  0.59497209  0.91604407     0.03000
C1516       C  0.14589245  0.57050992  0.90445030    -0.12200
C1517       C  0.16200526  0.55246312  0.88774817    -0.03300
C1518       C  0.19025433  0.55948886  0.88291931     0.02200
C1519       C  0.19851173  0.62692317  0.92456475     0.09000
N1520       N  0.13954520  0.61426718  0.93023675     0.65400
H1521       H  0.12424523  0.56567995  0.90851482     0.18300
N1522       N  0.20645997  0.54434513  0.86301876     0.75900
H1523       H  0.22368632  0.58841713  0.89166900     0.09800
C1524       C  0.20761884  0.62779709  0.95263153     0.03500
C1525       C  0.21683360  0.65320999  0.96417072    -0.05200
C1526       C  0.21731772  0.67829071  0.94828532    -0.23600
C1527       C  0.20897354  0.67705439  0.91980465     0.12800
C1528       C  0.19974437  0.65155468  0.90834291    -0.12700
N1529       N  0.20705406  0.60315668  0.96990240     0.64400
H1530       H  0.22289112  0.65343209  0.98604706     0.12300
N1531       N  0.20754676  0.70177796  0.90271070     0.61100
H1532       H  0.19255025  0.65120999  0.88681194     0.08500
O1533       O  0.22405508  0.52627043  0.87129681    -0.40400
O1534       O  0.20880382  0.55441128  0.83871051    -0.39600
O1535       O  0.12881000  0.63474424  0.91700051    -0.39600
O1536       O  0.13656638  0.61241092  0.95636337    -0.37300
O1537       O  0.22875595  0.70908618  0.88898770    -0.38200
O1538       O  0.18393405  0.71184287  0.89608096    -0.34300
O1539       O  0.22757109  0.58639272  0.96974119    -0.35700
O1540       O  0.18923946  0.60124104  0.98913552    -0.40000
C1541       C  0.12197226  0.41285713  0.80505054    -0.13700
C1542       C  0.09488909  0.40305792  0.81013015     0.16700
C1543       C  0.07903148  0.41606132  0.83122064     0.03000
C1544       C  0.09023822  0.43840772  0.84659001    -0.12200
C1545       C  0.11719919  0.44862158  0.84130781    -0.03300
C1546       C  0.13312499  0.43550277  0.82020105     0.02200
C1547       C  0.08526123  0.37643737  0.79698306     0.09000
N1548       N  0.05135696  0.40684207  0.83721497     0.65400
H1549       H  0.07760355  0.44806189  0.86260747     0.18300
N1550       N  0.16042324  0.44523841  0.81334605     0.75900
H1551       H  0.13464411  0.40270654  0.78935730     0.09800
C1552       C  0.07324124  0.37487289  0.76990038     0.03500
C1553       C  0.06207284  0.34913171  0.76023641    -0.05200
C1554       C  0.06293835  0.32486983  0.77728381    -0.23600
C1555       C  0.07786722  0.32626869  0.80301637     0.12800
C1556       C  0.08827782  0.35178149  0.81266020    -0.12700
N1557       N  0.07054107  0.39950860  0.75282989     0.64400
H1558       H  0.05112924  0.34865147  0.74035007     0.12300
N1559       N  0.08350394  0.30164524  0.81943275     0.61100
H1560       H  0.09870422  0.35236574  0.83285175     0.08500
O1561       O  0.16285115  0.46483087  0.79565797    -0.40400
O1562       O  0.18120775  0.42951588  0.81832616    -0.39600
O1563       O  0.04747691  0.38965902  0.85702406    -0.39600
O1564       O  0.03079486  0.42019049  0.82696887    -0.37300
O1565       O  0.10611315  0.28855444  0.81555996    -0.38200
O1566       O  0.07046631  0.29782790  0.84197528    -0.34300
O1567       O  0.08689690  0.40312493  0.73256422    -0.35700
O1568       O  0.04911614  0.41490175  0.75492484    -0.40000
C1569       C  0.16524161  0.40485213  0.91449115    -0.13700
C1570       C  0.19375646  0.40180171  0.90836013     0.16700
C1571       C  0.20607895  0.42072523  0.88938213     0.03000
C1572       C  0.19040938  0.44356362  0.87875769    -0.12200
C1573       C  0.16231453  0.44763537  0.88625438    -0.03300
C1574       C  0.14944720  0.42743378  0.90357787     0.02200
C1575       C  0.21020664  0.37890817  0.92227835     0.09000
N1576       N  0.23497533  0.41817546  0.88233312     0.65400
H1577       H  0.20056273  0.45889603  0.86544024     0.18300
N1578       N  0.12067252  0.42985827  0.91097319     0.75900
H1579       H  0.15531110  0.38988017  0.92836668     0.09800
C1580       C  0.21364343  0.37822925  0.95157361     0.03500
C1581       C  0.22566435  0.35464389  0.96475962    -0.05200
C1582       C  0.23526738  0.33179732  0.94916243    -0.23600
C1583       C  0.23373548  0.33330093  0.91967827     0.12800
C1584       C  0.22115144  0.35673485  0.90649109    -0.12700
N1585       N  0.20467589  0.40129256  0.96821666     0.64400
H1586       H  0.22635522  0.35363110  0.98739170     0.12300
N1587       N  0.24290840  0.31031385  0.90297099     0.61100
H1588       H  0.21882624  0.35705100  0.88394052     0.08500
O1589       O  0.10384382  0.41105764  0.90334205    -0.40400
O1590       O  0.11370420  0.44626924  0.93030624    -0.39600
O1591       O  0.24185200  0.41098397  0.85800117    -0.39600
O1592       O  0.25362892  0.42171792  0.90073405    -0.37300
O1593       O  0.22515983  0.29364537  0.89290449    -0.38200
O1594       O  0.26741836  0.31033441  0.89343943    -0.34300
O1595       O  0.18135277  0.40032541  0.98028644    -0.35700
O1596       O  0.22191473  0.42014652  0.97467765    -0.40000
C1597       C  0.18003284  0.49137038  0.96761346    -0.13700
C1598       C  0.15608953  0.50063104  0.98144822     0.16700
C1599       C  0.13353402  0.51133896  0.96539274     0.03000
C1600       C  0.13415463  0.50978762  0.93622852    -0.12200
C1601       C  0.15794856  0.50026722  0.92200189    -0.03300
C1602       C  0.18159802  0.49193253  0.93823298     0.02200
C1603       C  0.15391864  0.49719530  0.01236300     0.09000
N1604       N  0.11082810  0.52585287  0.97825468     0.65400
H1605       H  0.11603262  0.51699877  0.92443365     0.18300
N1606       N  0.20810902  0.48639546  0.92606282     0.75900
H1607       H  0.19786774  0.48399038  0.97975021     0.09800
C1608       C  0.13208560  0.48127741  0.02384486     0.03500
C1609       C  0.12721321  0.48196575  0.05265111    -0.05200
C1610       C  0.14600567  0.49501410  0.07113297    -0.23600
C1611       C  0.17020605  0.50762605  0.05979803     0.12800
C1612       C  0.17332495  0.50964874  0.03052811    -0.12700
N1613       N  0.11603029  0.46288512  0.00657349     0.64400
H1614       H  0.10861451  0.47201710  0.06071316     0.12300
N1615       N  0.19239981  0.51700240  0.07740915     0.61100
H1616       H  0.19116303  0.52058689  0.02195008     0.08500
O1617       O  0.21942044  0.46286961  0.93098493    -0.40400
O1618       O  0.22388468  0.50709462  0.92195070    -0.39600
O1619       O  0.11472812  0.55058890  0.98666575    -0.39600
O1620       O  0.08614462  0.51757660  0.97418622    -0.37300
O1621       O  0.20708484  0.49885905  0.09014618    -0.38200
O1622       O  0.20233577  0.54118622  0.07359234    -0.34300
O1623       O  0.12828026  0.44376477  0.99313094    -0.35700
O1624       O  0.08969101  0.46344973  0.00726930    -0.40000
C1625       C  0.04004239  0.49776895  0.81653195    -0.13700
C1626       C  0.02392695  0.50359422  0.84030399     0.16700
C1627       C  0.03821373  0.51057695  0.86532480     0.03000
C1628       C  0.06745800  0.50978531  0.86661399    -0.12200
C1629       C  0.08366357  0.50303801  0.84326379    -0.03300
C1630       C  0.06960333  0.49785431  0.81766778     0.02200
C1631       C  0.99274429  0.49934505  0.84030337     0.09000
N1632       N  0.02331187  0.51874126  0.88978781     0.65400
H1633       H  0.07771734  0.51437208  0.88631668     0.18300
N1634       N  0.08469554  0.49307099  0.79254515     0.75900
H1635       H  0.02971862  0.49232558  0.79712974     0.09800
C1636       C  0.97379732  0.51296439  0.82169748     0.03500
C1637       C  0.94461346  0.51127608  0.82627318    -0.05200
C1638       C  0.93368688  0.49632449  0.84935035    -0.23600
C1639       C  0.95292959  0.48035581  0.86592535     0.12800
C1640       C  0.98166235  0.48172888  0.86088842    -0.12700
N1641       N  0.98372636  0.52976107  0.79902089     0.64400
H1642       H  0.93064017  0.52271115  0.81234567     0.12300
N1643       N  0.94432200  0.46412906  0.88956712     0.61100
H1644       H  0.99572750  0.46984187  0.87441425     0.08500
O1645       O  0.08649364  0.51295969  0.77505171    -0.40400
O1646       O  0.08775649  0.46820863  0.78414383    -0.39600
O1647       O  0.02289124  0.50239035  0.91069561    -0.39600
O1648       O  0.01705252  0.54429136  0.89297994    -0.37300
O1649       O  0.95131811  0.43855166  0.89097519    -0.38200
O1650       O  0.93903763  0.47670333  0.91195133    -0.34300
O1651       O  0.98412226  0.51960249  0.77474839    -0.35700
O1652       O  0.98616139  0.55594204  0.80205318    -0.40000
C1653       C  0.62457977  0.94792299  0.81174039    -0.13700
C1654       C  0.62246212  0.91883628  0.80712197     0.16700
C1655       C  0.64112852  0.90663051  0.78765306     0.03000
C1656       C  0.66166421  0.92312608  0.77451154    -0.12200
C1657       C  0.66513705  0.95157889  0.78107109    -0.03300
C1658       C  0.64611757  0.96401346  0.79990151     0.02200
C1659       C  0.59999064  0.90219835  0.82183726     0.09000
N1660       N  0.64102850  0.87711163  0.78243709     0.65400
H1661       H  0.67652454  0.91297253  0.76084194     0.18300
N1662       N  0.64865580  0.99281798  0.80785732     0.75900
H1663       H  0.60979639  0.95827821  0.82528149     0.09800
C1664       C  0.59333200  0.90629649  0.85041733     0.03500
C1665       C  0.56963058  0.89348666  0.86216929    -0.05200
C1666       C  0.55262846  0.87553849  0.84647375    -0.23600
C1667       C  0.56051802  0.86958271  0.81865843     0.12800
C1668       C  0.58349590  0.88329628  0.80662411    -0.12700
N1669       N  0.61063641  0.92306378  0.86802363     0.64400
H1670       H  0.56410418  0.89809159  0.88358104     0.12300
N1671       N  0.54517460  0.85017390  0.80189510     0.61100
H1672       H  0.58745591  0.88008565  0.78465290     0.08500
O1673       O  0.66628539  0.99933666  0.82640362    -0.40400
O1674       O  0.62885737  0.00965038  0.80238111    -0.39600
O1675       O  0.63472444  0.86838399  0.75837672    -0.39600
O1676       O  0.65269762  0.86056439  0.79971686    -0.37300
O1677       O  0.52028639  0.85570677  0.79508454    -0.38200
O1678       O  0.55815432  0.83138781  0.78869709    -0.34300
O1679       O  0.60081089  0.94516279  0.87862862    -0.35700
O1680       O  0.63315048  0.91281830  0.87760612    -0.40000
C1681       C  0.64233613  0.81109543  0.92499035    -0.13700
C1682       C  0.61988116  0.79265716  0.92653014     0.16700
C1683       C  0.62467553  0.76459876  0.93526296     0.03000
C1684       C  0.65161411  0.75611414  0.94406939    -0.12200
C1685       C  0.67372343  0.77540464  0.94434648    -0.03300
C1686       C  0.66897391  0.80284369  0.93347312     0.02200
C1687       C  0.59239336  0.80354487  0.91696409     0.09000
N1688       N  0.60225944  0.74497835  0.93654527     0.65400
H1689       H  0.65485147  0.73497616  0.95208363     0.18300
N1690       N  0.69101827  0.82281209  0.93080764     0.75900
H1691       H  0.63919081  0.83222405  0.91683424     0.09800
C1692       C  0.58082135  0.82792752  0.92901566     0.03500
C1693       C  0.55852516  0.84185582  0.91585042    -0.05200
C1694       C  0.54673651  0.83140195  0.89121339    -0.23600
C1695       C  0.55784258  0.80665364  0.87939377     0.12800
C1696       C  0.58069524  0.79311099  0.89226629    -0.12700
N1697       N  0.59163676  0.83881136  0.95463269     0.64400
H1698       H  0.54997969  0.86068423  0.92518739     0.12300
N1699       N  0.54665222  0.79527884  0.85412414     0.61100
H1700       H  0.58989556  0.77485094  0.88247034     0.08500
O1701       O  0.68936656  0.84588357  0.94350075    -0.40400
O1702       O  0.70891013  0.81983178  0.91180669    -0.39600
O1703       O  0.60085410  0.72555971  0.91881207    -0.39600
O1704       O  0.58726016  0.74383684  0.95810420    -0.37300
O1705       O  0.52369522  0.78242822  0.85471550    -0.38200
O1706       O  0.56260591  0.79174294  0.83355944    -0.34300
O1707       O  0.60472044  0.86175460  0.95448558    -0.35700
O1708       O  0.58335563  0.82865374  0.97755416    -0.40000
C1709       C  0.42070359  0.87790193  0.79695315    -0.13700
C1710       C  0.41100863  0.90531499  0.80132714     0.16700
C1711       C  0.42128191  0.92076212  0.82405470     0.03000
C1712       C  0.44071101  0.90858677  0.84221021    -0.12200
C1713       C  0.45062966  0.88128952  0.83803175    -0.03300
C1714       C  0.44071621  0.86586433  0.81495667     0.02200
C1715       C  0.38624361  0.91544666  0.78610094     0.09000
N1716       N  0.41159374  0.94859716  0.82954854     0.65400
H1717       H  0.44771371  0.92052913  0.86000808     0.18300
N1718       N  0.45081046  0.83816897  0.80937878     0.75900
H1719       H  0.41232136  0.86568922  0.77984952     0.09800
C1720       C  0.38745495  0.93583490  0.76463568     0.03500
C1721       C  0.36269084  0.94873652  0.75506671    -0.05200
C1722       C  0.33702497  0.94149025  0.76700565    -0.23600
C1723       C  0.33596227  0.91955350  0.78703368     0.12800
C1724       C  0.36050263  0.90674747  0.79628027    -0.12700
N1725       N  0.41359172  0.94405572  0.75301991     0.64400
H1726       H  0.36367517  0.96545747  0.73958521     0.12300
N1727       N  0.31024331  0.91051734  0.79895937     0.61100
H1728       H  0.35956963  0.89083427  0.81262461     0.08500
O1729       O  0.46887541  0.83487630  0.79062359    -0.40400
O1730       O  0.43623359  0.81739782  0.81663247    -0.39600
O1731       O  0.38843239  0.95201699  0.84153110    -0.39600
O1732       O  0.42890076  0.96849304  0.82920407    -0.37300
O1733       O  0.29589436  0.89250745  0.78613788    -0.38200
O1734       O  0.30644163  0.91383448  0.82480091    -0.34300
O1735       O  0.42069374  0.93486511  0.72943684    -0.35700
O1736       O  0.42714607  0.96387104  0.76387777    -0.40000
C1737       C  0.39726098  0.83845714  0.90786365    -0.13700
C1738       C  0.39384407  0.80958475  0.90335564     0.16700
C1739       C  0.41465208  0.79519423  0.88840463     0.03000
C1740       C  0.43880848  0.80939234  0.87950173    -0.12200
C1741       C  0.44286700  0.83817750  0.88468152    -0.03300
C1742       C  0.42115950  0.85292064  0.89854919     0.02200
C1743       C  0.36933248  0.79477711  0.91602150     0.09000
N1744       N  0.41181986  0.76598126  0.88256187     0.65400
H1745       H  0.45466845  0.79774490  0.86838239     0.18300
N1746       N  0.42271053  0.88235678  0.90389684     0.75900
H1747       H  0.38133140  0.84987206  0.91916981     0.09800
C1748       C  0.36912130  0.78819993  0.94477668     0.03500
C1749       C  0.34501720  0.77724576  0.95725530    -0.05200
C1750       C  0.32025964  0.77271209  0.94182907    -0.23600
C1751       C  0.32080824  0.77828006  0.91266717     0.12800
C1752       C  0.34516282  0.78925100  0.90010535    -0.12700
N1753       N  0.39277655  0.79422770  0.96202879     0.64400
H1754       H  0.34529477  0.77390308  0.97966534     0.12300
N1755       N  0.29642733  0.77432732  0.89576977     0.61100
H1756       H  0.34489901  0.79430746  0.87797705     0.08500
O1757       O  0.43141797  0.89014824  0.92750834    -0.40400
O1758       O  0.40618734  0.89847067  0.89065905    -0.39600
O1759       O  0.40168367  0.75850649  0.85938712    -0.39600
O1760       O  0.42402822  0.74806222  0.89801332    -0.37300
O1761       O  0.28784247  0.74983305  0.89083595    -0.38200
O1762       O  0.28225878  0.79530393  0.88754958    -0.34300
O1763       O  0.39278023  0.81619363  0.97660420    -0.35700
O1764       O  0.41101179  0.77544540  0.96653901    -0.40000
C1765       C  0.64566115  0.89280317  0.21227536    -0.13700
C1766       C  0.62083780  0.90861351  0.21358128     0.16700
C1767       C  0.62072751  0.93340316  0.22962469     0.03000
C1768       C  0.64594485  0.94387932  0.24051166    -0.12200
C1769       C  0.67123869  0.92913135  0.23747649    -0.03300
C1770       C  0.67064501  0.90259667  0.22435517     0.02200
C1771       C  0.59646629  0.90053368  0.19561282     0.09000
N1772       N  0.59507195  0.94744476  0.23605914     0.65400
H1773       H  0.64579911  0.96377318  0.25136436     0.18300
N1774       N  0.69563641  0.88644056  0.22094756     0.75900
H1775       H  0.64602924  0.87347485  0.20046455     0.09800
C1776       C  0.58892746  0.91661531  0.17173683     0.03500
C1777       C  0.56771185  0.90756695  0.15381485    -0.05200
C1778       C  0.55218369  0.88339643  0.15949857    -0.23600
C1779       C  0.55992586  0.86684185  0.18303253     0.12800
C1780       C  0.58219684  0.87523980  0.20055062    -0.12700
N1781       N  0.60225452  0.94254149  0.16522354     0.64400
H1782       H  0.56347767  0.91978614  0.13514747     0.12300
N1783       N  0.54550429  0.84145198  0.18942337     0.61100
H1784       H  0.58809209  0.86217122  0.21831667     0.08500
O1785       O  0.70953920  0.88889817  0.19876131    -0.40400
O1786       O  0.70077236  0.86620727  0.23745140    -0.39600
O1787       O  0.57720055  0.93478537  0.25070793    -0.39600
O1788       O  0.59311532  0.97375586  0.23303997    -0.37300
O1789       O  0.55734052  0.81820442  0.18484038    -0.38200
O1790       O  0.52472878  0.84223882  0.20549029    -0.34300
O1791       O  0.61572803  0.94443745  0.14273134    -0.35700
O1792       O  0.59216676  0.96464297  0.17547490    -0.40000
C1793       C  0.62722486  0.78986298  0.05879394    -0.13700
C1794       C  0.62741215  0.79622188  0.08727658     0.16700
C1795       C  0.65111827  0.78954620  0.10361415     0.03000
C1796       C  0.67468008  0.77772146  0.09096311    -0.12200
C1797       C  0.67518285  0.77261622  0.06201301    -0.03300
C1798       C  0.65075284  0.77814103  0.04606434     0.02200
C1799       C  0.60313546  0.81133786  0.09880105     0.09000
N1800       N  0.65180011  0.79520235  0.13289637     0.65400
H1801       H  0.69313248  0.77381976  0.10370772     0.18300
N1802       N  0.64942973  0.77228481  0.01689713     0.75900
H1803       H  0.60886316  0.79469033  0.04619244     0.09800
C1804       C  0.60349004  0.84072762  0.10148452     0.03500
C1805       C  0.57908440  0.85506582  0.10872031    -0.05200
C1806       C  0.55404900  0.84069180  0.11367333    -0.23600
C1807       C  0.55403857  0.81101150  0.11196946     0.12800
C1808       C  0.57844653  0.79668291  0.10422422    -0.12700
N1809       N  0.62802519  0.85647963  0.09519505     0.64400
H1810       H  0.57947288  0.87774370  0.10899035     0.12300
N1811       N  0.52959119  0.79508377  0.11830406     0.61100
H1812       H  0.57810140  0.77402327  0.10221441     0.08500
O1813       O  0.64649640  0.79238449  0.99973312    -0.40400
O1814       O  0.64417684  0.74758829  0.00914757    -0.39600
O1815       O  0.64517560  0.77606645  0.14997963    -0.39600
O1816       O  0.66469122  0.81647137  0.14165231    -0.37300
O1817       O  0.51872256  0.77999565  0.09964815    -0.38200
O1818       O  0.52314735  0.79086104  0.14351208    -0.34300
O1819       O  0.64172392  0.86755707  0.11480985    -0.35700
O1820       O  0.63238163  0.86425384  0.07032842    -0.40000
C1821       C  0.41292182  0.92393189  0.16012155    -0.13700
C1822       C  0.40392414  0.90694015  0.18240205     0.16700
C1823       C  0.41739142  0.88073484  0.18671752     0.03000
C1824       C  0.44015151  0.87297221  0.16989559    -0.12200
C1825       C  0.45015539  0.89085306  0.14868904    -0.03300
C1826       C  0.43598710  0.91660065  0.14374830     0.02200
C1827       C  0.38051434  0.91743695  0.20035600     0.09000
N1828       N  0.40927320  0.86238769  0.20895887     0.65400
H1829       H  0.45090295  0.85329446  0.17424812     0.18300
N1830       N  0.44535167  0.93650967  0.12342685     0.75900
H1831       H  0.40214173  0.94352913  0.15554794     0.09800
C1832       C  0.38042459  0.94534165  0.21029219     0.03500
C1833       C  0.35623754  0.95678558  0.22199474    -0.05200
C1834       C  0.33174027  0.94100088  0.22511256    -0.23600
C1835       C  0.33263761  0.91222823  0.21776014     0.12800
C1836       C  0.35668420  0.90089788  0.20508703    -0.12700
N1837       N  0.40465721  0.96267007  0.20818832     0.64400
H1838       H  0.35638737  0.97873864  0.22761576     0.12300
N1839       N  0.30913424  0.89440305  0.22215687     0.61100
H1840       H  0.35613199  0.87945755  0.19774466     0.08500
O1841       O  0.43932222  0.93283268  0.09806292    -0.40400
O1842       O  0.45091076  0.96104037  0.13139024    -0.39600
O1843       O  0.39756249  0.83940934  0.20334009    -0.39600
O1844       O  0.41875872  0.86634847  0.23327392    -0.37300
O1845       O  0.29221054  0.89000737  0.20235243    -0.38200
O1846       O  0.30828568  0.87912894  0.24382943    -0.34300
O1847       O  0.40375512  0.98474812  0.19338006    -0.35700
O1848       O  0.42442506  0.95923345  0.22548403    -0.40000
C1849       C  0.38064408  0.77208388  0.07062785    -0.13700
C1850       C  0.37927983  0.79770844  0.08507467     0.16700
C1851       C  0.35312552  0.81043407  0.08934798     0.03000
C1852       C  0.32922645  0.79883651  0.07763968    -0.12200
C1853       C  0.33057018  0.77448236  0.06143782    -0.03300
C1854       C  0.35634258  0.76032516  0.05877324     0.02200
C1855       C  0.40498683  0.81349896  0.09198212     0.09000
N1856       N  0.35086357  0.83661490  0.10348290     0.65400
H1857       H  0.30954631  0.80994091  0.07995253     0.18300
N1858       N  0.35853707  0.73546577  0.04242841     0.75900
H1859       H  0.40073878  0.76219820  0.06705400     0.09800
C1860       C  0.42390833  0.80440260  0.11276561     0.03500
C1861       C  0.44693562  0.82110245  0.11954055    -0.05200
C1862       C  0.45174314  0.84675087  0.10558883    -0.23600
C1863       C  0.43284249  0.85585884  0.08444707     0.12800
C1864       C  0.40971021  0.83907121  0.07803865    -0.12700
N1865       N  0.41972775  0.77855368  0.12747328     0.64400
H1866       H  0.46144267  0.81386922  0.13559771     0.12300
N1867       N  0.43675205  0.88149609  0.06893693     0.61100
H1868       H  0.39532180  0.84581608  0.06168253     0.08500
O1869       O  0.35955601  0.71180825  0.05450975    -0.40400
O1870       O  0.36486337  0.73736984  0.01693063    -0.39600
O1871       O  0.34556073  0.85869782  0.08964133    -0.39600
O1872       O  0.35076162  0.83715889  0.12984157    -0.37300
O1873       O  0.41575652  0.89528317  0.06020512    -0.38200
O1874       O  0.46074247  0.88858897  0.06083699    -0.34300
O1875       O  0.43491340  0.75754996  0.12210164    -0.35700
O1876       O  0.40425243  0.77805693  0.14871040    -0.40000
C1877       C  0.52001019  0.85532549  0.02382897    -0.13700
C1878       C  0.50091354  0.83610220  0.01300884     0.16700
C1879       C  0.48537479  0.81965136  0.03176789     0.03000
C1880       C  0.48887272  0.82300993  0.06082188    -0.12200
C1881       C  0.50595156  0.84440780  0.07193646    -0.03300
C1882       C  0.52202354  0.86033337  0.05262343     0.02200
C1883       C  0.49617899  0.83548926  0.98213319     0.09000
N1884       N  0.46366077  0.80191563  0.02164144     0.65400
H1885       H  0.47680716  0.80976029  0.07451852     0.18300
N1886       N  0.53737465  0.88448190  0.06097945     0.75900
H1887       H  0.53194562  0.86829592  0.00955610     0.09800
C1888       C  0.48667536  0.85972124  0.96786187     0.03500
C1889       C  0.48655633  0.86057814  0.93863260    -0.05200
C1890       C  0.49338497  0.83687902  0.92271649    -0.23600
C1891       C  0.50136851  0.81180117  0.93702837     0.12800
C1892       C  0.50330185  0.81165588  0.96655117    -0.12700
N1893       N  0.47649442  0.88344057  0.98294276     0.64400
H1894       H  0.48167019  0.88024242  0.92814055     0.12300
N1895       N  0.50783789  0.78659951  0.92214873     0.61100
H1896       H  0.51050994  0.79289864  0.97744858     0.08500
O1897       O  0.52447057  0.90762859  0.06142629    -0.40400
O1898       O  0.56336774  0.88479510  0.05676252    -0.39600
O1899       O  0.46836088  0.77618018  0.01756515    -0.39600
O1900       O  0.44029285  0.81244877  0.01488448    -0.37300
O1901       O  0.49242554  0.77901614  0.90215313    -0.38200
O1902       O  0.52628406  0.76982213  0.93144373    -0.34300
O1903       O  0.49097158  0.90542651  0.98471706    -0.35700
O1904       O  0.45219339  0.88301283  0.99300942    -0.40000
C1905       C  0.60546616  0.08823537  0.83597380    -0.13700
C1906       C  0.60387364  0.09516782  0.80749535     0.16700
C1907       C  0.57913949  0.10771558  0.79712428     0.03000
C1908       C  0.55657967  0.11254009  0.81525249    -0.12200
C1909       C  0.55818830  0.10555392  0.84394122    -0.03300
C1910       C  0.58354055  0.09387634  0.85429849     0.02200
C1911       C  0.62820762  0.08767885  0.78960399     0.09000
N1912       N  0.57705615  0.11675910  0.76863306     0.65400
H1913       H  0.53777767  0.12241574  0.80697708     0.18300
N1914       N  0.58808395  0.08753218  0.88315617     0.75900
H1915       H  0.62405229  0.07792154  0.84422715     0.09800
C1916       C  0.65548153  0.09475609  0.79834573     0.03500
C1917       C  0.67836134  0.08019473  0.78779095    -0.05200
C1918       C  0.67510926  0.05913435  0.76779460    -0.23600
C1919       C  0.64840101  0.05447267  0.75620984     0.12800
C1920       C  0.62501910  0.06854820  0.76744373    -0.12700
N1921       N  0.66017500  0.11538651  0.81942100     0.64400
H1922       H  0.69887126  0.08435920  0.79648969     0.12300
N1923       N  0.64440431  0.03411915  0.73479722     0.61100
H1924       H  0.60427866  0.06284262  0.76038658     0.08500
O1925       O  0.60886969  0.09854979  0.89511644    -0.40400
O1926       O  0.57891072  0.06469208  0.89282703    -0.39600
O1927       O  0.56076824  0.10429800  0.75207309    -0.39600
O1928       O  0.58764987  0.13989417  0.76137561    -0.37300
O1929       O  0.63906384  0.00898835  0.74132039    -0.38200
O1930       O  0.64120093  0.04221193  0.70978454    -0.34300
O1931       O  0.67131015  0.10816541  0.84240806    -0.35700
O1932       O  0.65879795  0.14110512  0.81291404    -0.40000
C1933       C  0.59387099  0.16395280  0.92336972    -0.13700
C1934       C  0.60217272  0.18485706  0.90451547     0.16700
C1935       C  0.58832208  0.18674697  0.87842941     0.03000
C1936       C  0.56652937  0.16802461  0.87198923    -0.12200
C1937       C  0.55747927  0.14757667  0.89135545    -0.03300
C1938       C  0.57145819  0.14604415  0.91770185     0.02200
C1939       C  0.62617714  0.20323841  0.91253271     0.09000
N1940       N  0.59509131  0.20848972  0.85889276     0.65400
H1941       H  0.55582233  0.17018941  0.85203568     0.18300
N1942       N  0.56375419  0.12681560  0.93938787     0.75900
H1943       H  0.60504948  0.16134835  0.94300325     0.09800
C1944       C  0.62704185  0.21650200  0.93888417     0.03500
C1945       C  0.65185398  0.22853636  0.94862191    -0.05200
C1946       C  0.67626529  0.22797018  0.93265036    -0.23600
C1947       C  0.67520924  0.21600839  0.90568390     0.12800
C1948       C  0.65024674  0.20393167  0.89584919    -0.12700
N1949       N  0.60320158  0.21676991  0.95669467     0.64400
H1950       H  0.65228459  0.23748770  0.96938746     0.12300
N1951       N  0.69997399  0.21297086  0.88941669     0.61100
H1952       H  0.65034258  0.19316330  0.87598933     0.08500
O1953       O  0.57191928  0.10167574  0.93794977    -0.40400
O1954       O  0.55867483  0.13661888  0.96326775    -0.39600
O1955       O  0.60610047  0.20229127  0.83584902    -0.39600
O1956       O  0.58591959  0.23307299  0.86264347    -0.37300
O1957       O  0.71580361  0.19201988  0.89355663    -0.38200
O1958       O  0.70307359  0.22786747  0.86772646    -0.34300
O1959       O  0.60382524  0.20284599  0.97926380    -0.35700
O1960       O  0.58449989  0.23524198  0.95298555    -0.40000
C1961       C  0.41455148  0.07131142  0.83583986    -0.13700
C1962       C  0.40705828  0.08767130  0.81229145     0.16700
C1963       C  0.42313560  0.11172874  0.80624263     0.03000
C1964       C  0.44675804  0.11808534  0.82265087    -0.12200
C1965       C  0.45502913  0.10100642  0.84539706    -0.03300
C1966       C  0.43811973  0.07765367  0.85236914     0.02200
C1967       C  0.38247621  0.07924393  0.79451514     0.09000
N1968       N  0.41653377  0.12925532  0.78270690     0.65400
H1969       H  0.45923252  0.13618690  0.81710383     0.18300
N1970       N  0.44439431  0.05984785  0.87582222     0.75900
H1971       H  0.40199267  0.05329749  0.84147659     0.09800
C1972       C  0.38046957  0.05193352  0.78338455     0.03500
C1973       C  0.35630952  0.04361366  0.76901010    -0.05200
C1974       C  0.33334286  0.06182697  0.76517337    -0.23600
C1975       C  0.33561150  0.08955632  0.77539755     0.12800
C1976       C  0.35996955  0.09795864  0.78986449    -0.12700
N1977       N  0.40255535  0.03193548  0.78702362     0.64400
H1978       H  0.35526142  0.02220509  0.76153174     0.12300
N1979       N  0.31276392  0.10888179  0.77300210     0.61100
H1980       H  0.36074016  0.11886610  0.79858485     0.08500
O1981       O  0.45798139  0.03757715  0.87163942    -0.40400
O1982       O  0.42852696  0.06064406  0.89674136    -0.39600
O1983       O  0.40622942  0.15337615  0.78650686    -0.39600
O1984       O  0.42565396  0.12284832  0.75890515    -0.37300
O1985       O  0.29535066  0.11064611  0.79260036    -0.38200
O1986       O  0.31311756  0.12767606  0.75424471    -0.34300
O1987       O  0.42187567  0.03105865  0.76925873    -0.35700
O1988       O  0.39877576  0.01103045  0.80289409    -0.40000
C1989       C  0.42762038  0.18783007  0.89886641    -0.13700
C1990       C  0.40893627  0.17291741  0.91602566     0.16700
C1991       C  0.41234641  0.14337094  0.91835013     0.03000
C1992       C  0.43550828  0.13013935  0.90618641    -0.12200
C1993       C  0.45432028  0.14504055  0.88957050    -0.03300
C1994       C  0.44969796  0.17406697  0.88517672     0.02200
C1995       C  0.38627008  0.18854839  0.93115150     0.09000
N1996       N  0.39188939  0.12606280  0.93168094     0.65400
H1997       H  0.43878964  0.10845772  0.90974704     0.18300
N1998       N  0.46680162  0.18972540  0.86631964     0.75900
H1999       H  0.42510065  0.21025330  0.89604366     0.09800
C2000       C  0.38077402  0.18379602  0.95985591     0.03500
C2001       C  0.35766144  0.19647486  0.97247530    -0.05200
C2002       C  0.34047900  0.21543085  0.95780451    -0.23600
C2003       C  0.34694382  0.22195192  0.92977115     0.12800
C2004       C  0.36942561  0.20829841  0.91661483    -0.12700
N2005       N  0.39842991  0.16627526  0.97676597     0.64400
H2006       H  0.35298397  0.19137070  0.99407906     0.12300
N2007       N  0.32962932  0.24076258  0.91381303     0.61100
H2008       H  0.37315873  0.21252293  0.89466645     0.08500
O2009       O  0.48201071  0.20919541  0.87548802    -0.40400
O2010       O  0.46176358  0.18856470  0.84043079    -0.39600
O2011       O  0.36685969  0.12706888  0.92323772    -0.39600
O2012       O  0.39962065  0.10604643  0.94748120    -0.37300
O2013       O  0.33355861  0.26691115  0.91512113    -0.38200
O2014       O  0.30921184  0.23143242  0.89995990    -0.34300
O2015       O  0.42257498  0.17466016  0.98313344    -0.35700
O2016       O  0.38765670  0.14657818  0.99074270    -0.40000
C2017       C  0.49870871  0.02145723  0.82544320    -0.13700
C2018       C  0.51006270  0.00536526  0.84781475     0.16700
C2019       C  0.52307538  0.01990033  0.87000750     0.03000
C2020       C  0.52094289  0.04920255  0.87128014    -0.12200
C2021       C  0.50954576  0.06532283  0.84930595    -0.03300
C2022       C  0.49935899  0.05117605  0.82551732     0.02200
C2023       C  0.50769383  0.97377266  0.84809503     0.09000
N2024       N  0.54000577  0.00549245  0.89047495     0.65400
H2025       H  0.52856084  0.05971216  0.88969057     0.18300
N2026       N  0.49022184  0.06642852  0.80122187     0.75900
H2027       H  0.48932788  0.01094980  0.80775034     0.09800
C2028       C  0.50004207  0.95855646  0.87247886     0.03500
C2029       C  0.50004992  0.92911412  0.87238260    -0.05200
C2030       C  0.50389205  0.91391339  0.84770897    -0.23600
C2031       C  0.50979090  0.92898768  0.82284968     0.12800
C2032       C  0.51272737  0.95845706  0.82356231    -0.12700
N2033       N  0.48933256  0.97243916  0.89661354     0.64400
H2034       H  0.49465867  0.91791864  0.89141262     0.12300
N2035       N  0.51105443  0.91526462  0.79646817     0.61100
H2036       H  0.51805330  0.96953526  0.80447595     0.08500
O2037       O  0.46678192  0.06110684  0.79038289    -0.40400
O2038       O  0.50775247  0.08026528  0.78726699    -0.39600
O2039       O  0.55950381  0.98958086  0.88249561    -0.39600
O2040       O  0.53925445  0.01280198  0.91577138    -0.37300
O2041       O  0.48889689  0.90541689  0.78610984    -0.38200
O2042       O  0.53166875  0.91955008  0.78071272    -0.34300
O2043       O  0.46620743  0.98518411  0.89470961    -0.35700
O2044       O  0.49860483  0.96578244  0.92055606    -0.40000
C2045       C  0.63683249  0.09293787  0.22068295    -0.13700
C2046       C  0.61743869  0.07819175  0.20405236     0.16700
C2047       C  0.61910938  0.04848750  0.20407132     0.03000
C2048       C  0.64093396  0.03451957  0.21813800    -0.12200
C2049       C  0.66135605  0.04925664  0.23306173    -0.03300
C2050       C  0.65839845  0.07865891  0.23546977     0.02200
C2051       C  0.59679214  0.09331428  0.18519781     0.09000
N2052       N  0.59961415  0.03212007  0.18852531     0.65400
H2053       H  0.64294827  0.01193823  0.21589559     0.18300
N2054       N  0.67856792  0.09446558  0.25078160     0.75900
H2055       H  0.63623804  0.11566353  0.22106465     0.09800
C2056       C  0.57822177  0.11417051  0.19494091     0.03500
C2057       C  0.55618186  0.12386373  0.17768222    -0.05200
C2058       C  0.55247343  0.11396199  0.15030315    -0.23600
C2059       C  0.57236930  0.09486101  0.13975220     0.12800
C2060       C  0.59442236  0.08526638  0.15699296    -0.12700
N2061       N  0.58043295  0.12472079  0.22272488     0.64400
H2062       H  0.54094146  0.13826926  0.18627045     0.12300
N2063       N  0.56973746  0.08349416  0.11232657     0.61100
H2064       H  0.60929422  0.07047509  0.14846187     0.08500
O2065       O  0.69897167  0.10543872  0.23830115    -0.40400
O2066       O  0.67766445  0.09486583  0.27713117    -0.39600
O2067       O  0.60769615  0.01880959  0.16734302    -0.39600
O2068       O  0.57530167  0.02833401  0.19775869    -0.37300
O2069       O  0.58528014  0.09290224  0.09328609    -0.38200
O2070       O  0.55987124  0.05913922  0.10973203    -0.34300
O2071       O  0.59017971  0.14898127  0.22652564    -0.35700
O2072       O  0.56756932  0.11262761  0.24231123    -0.40000
C2073       C  0.58275452  0.19563907  0.10666946    -0.13700
C2074       C  0.59458226  0.18629855  0.08173174     0.16700
C2075       C  0.58345611  0.16250157  0.06843918     0.03000
C2076       C  0.56042482  0.14874563  0.07994249    -0.12200
C2077       C  0.54859821  0.15798733  0.10495599    -0.03300
C2078       C  0.55985876  0.18172819  0.11834444     0.02200
C2079       C  0.62057900  0.19934666  0.07171622     0.09000
N2080       N  0.59539822  0.15210470  0.04326058     0.65400
H2081       H  0.55152465  0.13091994  0.06918797     0.18300
N2082       N  0.54773278  0.19261035  0.14321841     0.75900
H2083       H  0.59149771  0.21366030  0.11722787     0.09800
C2084       C  0.62095907  0.22499794  0.05669952     0.03500
C2085       C  0.64642395  0.23557714  0.04661665    -0.05200
C2086       C  0.67144896  0.22079766  0.05156870    -0.23600
C2087       C  0.67090358  0.19600038  0.06815839     0.12800
C2088       C  0.64563899  0.18551704  0.07783857    -0.12700
N2089       N  0.59560323  0.23984026  0.05063878     0.64400
H2090       H  0.64644272  0.25447317  0.03381685     0.12300
N2091       N  0.69595060  0.18112006  0.07550433     0.61100
H2092       H  0.64555620  0.16622409  0.09007749     0.08500
O2093       O  0.53218131  0.21402948  0.14135615    -0.40400
O2094       O  0.55885412  0.18658743  0.16650322    -0.39600
O2095       O  0.61233629  0.13170063  0.04439372    -0.39600
O2096       O  0.58505316  0.15952940  0.02000282    -0.37300
O2097       O  0.70809444  0.18680757  0.09823137    -0.38200
O2098       O  0.70128480  0.15809892  0.06373396    -0.34300
O2099       O  0.58899993  0.26094079  0.06499689    -0.35700
O2100       O  0.58220972  0.23464099  0.02849007    -0.40000
C2101       C  0.41077984  0.08278970  0.16785765    -0.13700
C2102       C  0.40778813  0.09735714  0.19298245     0.16700
C2103       C  0.42685325  0.11843899  0.19992570     0.03000
C2104       C  0.44805066  0.12532811  0.18121230    -0.12200
C2105       C  0.45097619  0.11114106  0.15577291    -0.03300
C2106       C  0.43237995  0.08900492  0.14915613     0.02200
C2107       C  0.38378367  0.09035379  0.21079944     0.09000
N2108       N  0.42525547  0.13261545  0.22604905     0.65400
H2109       H  0.46300295  0.14126929  0.18700567     0.18300
N2110       N  0.43513694  0.07214886  0.12444446     0.75900
H2111       H  0.39595976  0.06643097  0.16279608     0.09800
C2112       C  0.35680560  0.09883457  0.20241817     0.03500
C2113       C  0.33359661  0.08510642  0.21345564    -0.05200
C2114       C  0.33680870  0.06355833  0.23349904    -0.23600
C2115       C  0.36367127  0.05736976  0.24421290     0.12800
C2116       C  0.38706718  0.07045499  0.23238169    -0.12700
N2117       N  0.35293205  0.12003999  0.18132557     0.64400
H2118       H  0.31295457  0.09057380  0.20558966     0.12300
N2119       N  0.36768369  0.03664947  0.26564894     0.61100
H2120       H  0.40786077  0.06394963  0.23893392     0.08500
O2121       O  0.42622332  0.04722503  0.12432752    -0.40400
O2122       O  0.44469452  0.08233607  0.10211635    -0.39600
O2123       O  0.43770800  0.12232018  0.24713937    -0.39600
O2124       O  0.41647376  0.15764604  0.22671125    -0.37300
O2125       O  0.38017834  0.01400221  0.26004534    -0.38200
O2126       O  0.36500536  0.04369264  0.29085654    -0.34300
O2127       O  0.34383638  0.11352516  0.15743917    -0.35700
O2128       O  0.36017991  0.14501930  0.18603434    -0.40000
C2129       C  0.37754309  0.22665760  0.06677172    -0.13700
C2130       C  0.37407321  0.20913331  0.09026588     0.16700
C2131       C  0.34711515  0.20545452  0.10123818     0.03000
C2132       C  0.32397197  0.21674399  0.08697099    -0.12200
C2133       C  0.32715438  0.23244584  0.06223115    -0.03300
C2134       C  0.35430539  0.23875413  0.05295235     0.02200
C2135       C  0.39790173  0.19146297  0.10010645     0.09000
N2136       N  0.34281156  0.18929410  0.12614387     0.65400
H2137       H  0.30318582  0.21186354  0.09440935     0.18300
N2138       N  0.35856146  0.25651234  0.02913932     0.75900
H2139       H  0.39827826  0.22992907  0.05843382     0.09800
C2140       C  0.40108349  0.16381913  0.09035286     0.03500
C2141       C  0.42467527  0.14785828  0.09810551    -0.05200
C2142       C  0.44560797  0.15899045  0.11552854    -0.23600
C2143       C  0.44176886  0.18644298  0.12599678     0.12800
C2144       C  0.41814444  0.20243738  0.11811804    -0.12700
N2145       N  0.38120774  0.15230885  0.07121796     0.64400
H2146       H  0.42710371  0.12742186  0.08911672     0.12300
N2147       N  0.46172791  0.19851533  0.14462092     0.61100
H2148       H  0.41570526  0.22359783  0.12592332     0.08500
O2149       O  0.37184207  0.24728164  0.00843871    -0.40400
O2150       O  0.35517532  0.28268378  0.03159900    -0.39600
O2151       O  0.34727617  0.20047948  0.14956043    -0.39600
O2152       O  0.32876211  0.16697658  0.12501235    -0.37300
O2153       O  0.47420944  0.22060460  0.13730156    -0.38200
O2154       O  0.46092612  0.19211693  0.17023509    -0.34300
O2155       O  0.37950758  0.16185773  0.04657977    -0.35700
O2156       O  0.36325118  0.13502524  0.07980616    -0.40000
C2157       C  0.50031886  0.96879942  0.17162606    -0.13700
C2158       C  0.50952402  0.98374656  0.14758545     0.16700
C2159       C  0.51942123  0.96774890  0.12481162     0.03000
C2160       C  0.51478064  0.93883223  0.12435403    -0.12200
C2161       C  0.50529253  0.92416523  0.14781214    -0.03300
C2162       C  0.49957019  0.93914113  0.17224090     0.02200
C2163       C  0.50769715  0.01546862  0.14630069     0.09000
N2164       N  0.53637344  0.97978125  0.10322982     0.65400
H2165       H  0.52110360  0.92713641  0.10646457     0.18300
N2166       N  0.49399586  0.92454012  0.19778285     0.75900
H2167       H  0.49358794  0.97997485  0.18999482     0.09800
C2168       C  0.50034261  0.03052734  0.12142331     0.03500
C2169       C  0.49964071  0.05992625  0.12143718    -0.05200
C2170       C  0.50300423  0.07534415  0.14595382    -0.23600
C2171       C  0.50947267  0.06073839  0.17096173     0.12800
C2172       C  0.51259371  0.03125415  0.17069281    -0.12700
N2173       N  0.49205553  0.01678330  0.09616948     0.64400
H2174       H  0.49566033  0.07101811  0.10191976     0.12300
N2175       N  0.51210703  0.07516531  0.19690936     0.61100
H2176       H  0.51831861  0.02064762  0.19001498     0.08500
O2177       O  0.46957353  0.92392676  0.20744184    -0.40400
O2178       O  0.51365995  0.91236495  0.21088587    -0.39600
O2179       O  0.55742841  0.99416597  0.10986658    -0.39600
O2180       O  0.53386530  0.97143893  0.07834310    -0.37300
O2181       O  0.49071189  0.08625535  0.20750626    -0.38200
O2182       O  0.53322212  0.07060092  0.21225249    -0.34300
O2183       O  0.47055525  0.00160936  0.09605502    -0.35700
O2184       O  0.50214077  0.02473688  0.07310996    -0.40000
C2185       C  0.50364930  0.17816197  0.02900165    -0.13700
C2186       C  0.49031680  0.15634311  0.01436200     0.16700
C2187       C  0.47657592  0.13540949  0.03039086     0.03000
C2188       C  0.47965530  0.13468529  0.05934560    -0.12200
C2189       C  0.49280168  0.15628919  0.07401684    -0.03300
C2190       C  0.50355519  0.17916246  0.05848531     0.02200
C2191       C  0.49391673  0.15319383  0.98325513     0.09000
N2192       N  0.45893232  0.11477394  0.01787505     0.65400
H2193       H  0.47142375  0.11680840  0.07056949     0.18300
N2194       N  0.51327344  0.20394906  0.07198759     0.75900
H2195       H  0.51454144  0.19445893  0.01776806     0.09800
C2196       C  0.49505522  0.17605316  0.96386782     0.03500
C2197       C  0.50061858  0.17096389  0.93545473    -0.05200
C2198       C  0.50335391  0.14348621  0.92551529    -0.23600
C2199       C  0.50105120  0.12082453  0.94444091     0.12800
C2200       C  0.49814911  0.12594099  0.97286954    -0.12700
N2201       N  0.48972882  0.20437984  0.97211964     0.64400
H2202       H  0.50183627  0.18847828  0.92100083     0.12300
N2203       N  0.50189164  0.09228862  0.93517446     0.61100
H2204       H  0.49973514  0.10809019  0.98686121     0.08500
O2205       O  0.53605353  0.21475887  0.06450229    -0.40400
O2206       O  0.49586975  0.21898285  0.08478534    -0.39600
O2207       O  0.46487868  0.08904389  0.02090206    -0.39600
O2208       O  0.43422797  0.12157720  0.01144998    -0.37300
O2209       O  0.52272267  0.07708476  0.94134617    -0.38200
O2210       O  0.47934567  0.08046885  0.92850826    -0.34300
O2211       O  0.50931108  0.22199763  0.97110642    -0.35700
O2212       O  0.46484464  0.21322494  0.97271262    -0.40000
C2213       C  0.91993978  0.83833199  0.59848967    -0.13700
C2214       C  0.91788992  0.80906057  0.59597013     0.16700
C2215       C  0.90255800  0.79839156  0.57325204     0.03000
C2216       C  0.89088309  0.81685778  0.55312838    -0.12200
C2217       C  0.89431814  0.84625112  0.55446828    -0.03300
C2218       C  0.90852406  0.85690434  0.57826368     0.02200
C2219       C  0.93168803  0.79049380  0.61760719     0.09000
N2220       N  0.90000403  0.76880080  0.56937957     0.65400
H2221       H  0.87980288  0.80803004  0.53558275     0.18300
N2222       N  0.91229027  0.88621228  0.58260623     0.75900
H2223       H  0.93089605  0.84697213  0.61633054     0.09800
C2224       C  0.96072627  0.79205387  0.62268649     0.03500
C2225       C  0.97251565  0.77910144  0.64648423    -0.05200
C2226       C  0.95604518  0.76435824  0.66589695    -0.23600
C2227       C  0.92740158  0.76066087  0.65958076     0.12800
C2228       C  0.91549991  0.77370286  0.63560313    -0.12700
N2229       N  0.97840558  0.80784539  0.60449578     0.64400
H2230       H  0.99457076  0.78212874  0.65073285     0.12300
N2231       N  0.90956164  0.74628956  0.67869374     0.61100
H2232       H  0.89316730  0.77226025  0.63210035     0.08500
O2233       O  0.89754311  0.89782297  0.60101491    -0.40400
O2234       O  0.93598899  0.89643724  0.57758790    -0.39600
O2235       O  0.87699432  0.75699157  0.57425627    -0.39600
O2236       O  0.91859964  0.75576194  0.55605048    -0.37300
O2237       O  0.89625760  0.76005818  0.69672823    -0.38200
O2238       O  0.90338193  0.72094884  0.67440975    -0.34300
O2239       O  0.98760914  0.83133283  0.61226856    -0.35700
O2240       O  0.98927201  0.79595380  0.58372314    -0.40000
C2241       C  0.83709198  0.92850809  0.58811519    -0.13700
C2242       C  0.81662503  0.91064728  0.59894178     0.16700
C2243       C  0.81305731  0.88391170  0.58730806     0.03000
C2244       C  0.82988034  0.87544869  0.56493453    -0.12200
C2245       C  0.85016249  0.89347671  0.55356860    -0.03300
C2246       C  0.85386071  0.92051829  0.56545136     0.02200
C2247       C  0.80047799  0.92005658  0.62350782     0.09000
N2248       N  0.79163621  0.86570528  0.59727813     0.65400
H2249       H  0.82645725  0.85502430  0.55570995     0.18300
N2250       N  0.87459875  0.93991351  0.55540593     0.75900
H2251       H  0.84008260  0.94885251  0.59764592     0.09800
C2252       C  0.81306935  0.91937593  0.65002772     0.03500
C2253       C  0.80015808  0.93255799  0.67237441    -0.05200
C2254       C  0.77439231  0.94667822  0.66911792    -0.23600
C2255       C  0.76031512  0.94508914  0.64314467     0.12800
C2256       C  0.77380544  0.93230231  0.62030849    -0.12700
N2257       N  0.83930795  0.90560116  0.65443124     0.64400
H2258       H  0.81101788  0.93262205  0.69234685     0.12300
N2259       N  0.73297168  0.95681184  0.63940198     0.61100
H2260       H  0.76374932  0.93240665  0.59994354     0.08500
O2261       O  0.87224536  0.96584745  0.56027972    -0.40400
O2262       O  0.89635415  0.93121641  0.54348283    -0.39600
O2263       O  0.76736166  0.86748306  0.58691731    -0.39600
O2264       O  0.79586658  0.85077095  0.61883172    -0.37300
O2265       O  0.72824273  0.97367710  0.61939971    -0.38200
O2266       O  0.71263720  0.94558194  0.65178500    -0.34300
O2267       O  0.86130313  0.91982822  0.65717991    -0.35700
O2268       O  0.83979780  0.87961382  0.65967337    -0.40000
C2269       C  0.80865411  0.89266994  0.41754613    -0.13700
C2270       C  0.82286530  0.91132901  0.39985568     0.16700
C2271       C  0.85085378  0.91818652  0.40653612     0.03000
C2272       C  0.86368798  0.90679106  0.43067501    -0.12200
C2273       C  0.84912178  0.88898431  0.44894828    -0.03300
C2274       C  0.82144749  0.88145748  0.44182640     0.02200
C2275       C  0.80837768  0.92278995  0.37426411     0.09000
N2276       N  0.86606638  0.93791910  0.38994107     0.65400
H2277       H  0.88484780  0.91289760  0.43578895     0.18300
N2278       N  0.80641850  0.86145441  0.45823810     0.75900
H2279       H  0.78743229  0.88667774  0.41241061     0.09800
C2280       C  0.81774152  0.91617114  0.34722346     0.03500
C2281       C  0.80481320  0.92850157  0.32371825    -0.05200
C2282       C  0.78191068  0.94703545  0.32609204    -0.23600
C2283       C  0.77151230  0.95253394  0.35303764     0.12800
C2284       C  0.78489898  0.94059652  0.37681731    -0.12700
N2285       N  0.83983545  0.89628540  0.34316464     0.64400
H2286       H  0.81291935  0.92357675  0.30320691     0.12300
N2287       N  0.74831564  0.97106450  0.35677067     0.61100
H2288       H  0.77720608  0.94563469  0.39743558     0.08500
O2289       O  0.79944216  0.83846262  0.44737724    -0.40400
O2290       O  0.79452544  0.86917688  0.48031960    -0.39600
O2291       O  0.85881363  0.96344883  0.38982122    -0.39600
O2292       O  0.88966185  0.93114036  0.38040466    -0.37300
O2293       O  0.72385869  0.96140536  0.35538801    -0.38200
O2294       O  0.75222831  0.99471438  0.36776794    -0.34300
O2295       O  0.83477345  0.87039993  0.34569580    -0.35700
O2296       O  0.86188137  0.90391963  0.33101471    -0.40000
C2297       C  0.89391833  0.79698623  0.42849719    -0.13700
C2298       C  0.91284384  0.80773949  0.40902584     0.16700
C2299       C  0.92110748  0.83610631  0.41131030     0.03000
C2300       C  0.91082034  0.85296438  0.43302197    -0.12200
C2301       C  0.89195299  0.84218692  0.45266970    -0.03300
C2302       C  0.88359576  0.81378474  0.45022565     0.02200
C2303       C  0.92098462  0.79081009  0.38415599     0.09000
N2304       N  0.94004364  0.84801652  0.39158248     0.65400
H2305       H  0.91821892  0.87431518  0.43498019     0.18300
N2306       N  0.86473466  0.80147621  0.46975658     0.75900
H2307       H  0.88676880  0.77552450  0.42660183     0.09800
C2308       C  0.94209180  0.76981380  0.38493755     0.03500
C2309       C  0.95273134  0.75885480  0.35972727    -0.05200
C2310       C  0.94212011  0.76794610  0.33374661    -0.23600
C2311       C  0.91937610  0.78710683  0.33343979     0.12800
C2312       C  0.90923611  0.79834083  0.35833497    -0.12700
N2313       N  0.95384525  0.76040882  0.41094677     0.64400
H2314       H  0.97029994  0.74439246  0.36042100     0.12300
N2315       N  0.90688438  0.79635657  0.30779487     0.61100
H2316       H  0.89275117  0.81406092  0.35738146     0.08500
O2317       O  0.87446643  0.78590806  0.48898263    -0.40400
O2318       O  0.83942689  0.79887591  0.46281742    -0.39600
O2319       O  0.93139350  0.86602469  0.37399052    -0.39600
O2320       O  0.96460542  0.83847116  0.38982998    -0.37300
O2321       O  0.88543411  0.78379547  0.29905217    -0.38200
O2322       O  0.91169235  0.82097004  0.29913758    -0.34300
O2323       O  0.93879313  0.74705572  0.42799351    -0.35700
O2324       O  0.98002489  0.76018204  0.41425141    -0.40000
C2325       C  0.89566995  0.20045030  0.57819223    -0.13700
C2326       C  0.92015745  0.19116761  0.59178337     0.16700
C2327       C  0.93366576  0.16657295  0.58222411     0.03000
C2328       C  0.92233072  0.15149600  0.55997628    -0.12200
C2329       C  0.89744247  0.16027239  0.54699318    -0.03300
C2330       C  0.88433411  0.18523470  0.55582739     0.02200
C2331       C  0.92884012  0.20396904  0.61865953     0.09000
N2332       N  0.95862756  0.15626217  0.59541518     0.65400
H2333       H  0.93278654  0.13257804  0.55297455     0.18300
N2334       N  0.85944522  0.19520948  0.54231468     0.75900
H2335       H  0.88480827  0.21895620  0.58558177     0.09800
C2336       C  0.93867654  0.23178777  0.62118068     0.03500
C2337       C  0.94938816  0.24114326  0.64702430    -0.05200
C2338       C  0.95062458  0.22292530  0.67028128    -0.23600
C2339       C  0.93852855  0.19585554  0.66793176     0.12800
C2340       C  0.92771556  0.18694119  0.64247844    -0.12700
N2341       N  0.93916516  0.25025441  0.59752506     0.64400
H2342       H  0.95813278  0.26202623  0.64844645     0.12300
N2343       N  0.93712018  0.17676890  0.69113638     0.61100
H2344       H  0.91906522  0.16598524  0.64111290     0.08500
O2345       O  0.86110036  0.21095149  0.52104238    -0.40400
O2346       O  0.83601533  0.19101600  0.55345814    -0.39600
O2347       O  0.95762848  0.13453695  0.61068786    -0.39600
O2348       O  0.98200595  0.16510303  0.58723451    -0.37300
O2349       O  0.91379539  0.17275463  0.70255623    -0.38200
O2350       O  0.95612855  0.15849068  0.69431135    -0.34300
O2351       O  0.91944142  0.26763544  0.59386256    -0.35700
O2352       O  0.96167476  0.25355529  0.58437300    -0.40000
C2353       C  0.80474140  0.11412451  0.57969986    -0.13700
C2354       C  0.81953641  0.10831339  0.60445477     0.16700
C2355       C  0.84891761  0.10992369  0.60418927     0.03000
C2356       C  0.86284865  0.11666141  0.57930394    -0.12200
C2357       C  0.84827577  0.12112241  0.55398025    -0.03300
C2358       C  0.81863867  0.12065544  0.55472766     0.02200
C2359       C  0.80407382  0.09704418  0.62898648     0.09000
N2360       N  0.86512929  0.10175357  0.62811552     0.65400
H2361       H  0.88537710  0.11614691  0.57959445     0.18300
N2362       N  0.80215272  0.12743447  0.53053870     0.75900
H2363       H  0.78211930  0.11314384  0.57967900     0.09800
C2364       C  0.80057386  0.11219765  0.65396264     0.03500
C2365       C  0.78633377  0.09993306  0.67660848    -0.05200
C2366       C  0.77516463  0.07271771  0.67479451    -0.23600
C2367       C  0.77771608  0.05822024  0.64924750     0.12800
C2368       C  0.79215828  0.07034219  0.62685550    -0.12700
N2369       N  0.81088078  0.14016926  0.65651599     0.64400
H2370       H  0.78484948  0.11142074  0.69600428     0.12300
N2371       N  0.76535194  0.03128541  0.64546331     0.61100
H2372       H  0.79416957  0.05872081  0.60757307     0.08500
O2373       O  0.80005739  0.15279959  0.52290919    -0.40400
O2374       O  0.78416793  0.11012162  0.52207595    -0.39600
O2375       O  0.87326392  0.07656364  0.63034122    -0.39600
O2376       O  0.87737709  0.12037686  0.64215700    -0.37300
O2377       O  0.73946914  0.02975782  0.64057361    -0.38200
O2378       O  0.78077403  0.01019627  0.64114102    -0.34300
O2379       O  0.79568868  0.16048154  0.64848010    -0.35700
O2380       O  0.83141594  0.14481016  0.67247017    -0.40000
C2381       C  0.90391494  0.16778220  0.39939217    -0.13700
C2382       C  0.90622285  0.19635931  0.40523072     0.16700
C2383       C  0.89614201  0.20626164  0.43077028     0.03000
C2384       C  0.88618463  0.18709224  0.45080553    -0.12200
C2385       C  0.88664973  0.15766004  0.44648234    -0.03300
C2386       C  0.89436748  0.14835066  0.41929758     0.02200
C2387       C  0.92301728  0.21378263  0.38574448     0.09000
N2388       N  0.89750986  0.23541395  0.43740148     0.65400
H2389       H  0.87964901  0.19523990  0.47079566     0.18300
N2390       N  0.89248773  0.11995808  0.41027954     0.75900
H2391       H  0.91093973  0.16015363  0.37931058     0.09800
C2392       C  0.95206278  0.20923091  0.38487343     0.03500
C2393       C  0.96720985  0.21766527  0.36144132    -0.05200
C2394       C  0.95407099  0.23111382  0.33854997    -0.23600
C2395       C  0.92556810  0.23873147  0.34086356     0.12800
C2396       C  0.91013176  0.22961672  0.36426404    -0.12700
N2397       N  0.96582351  0.19311400  0.40630788     0.64400
H2398       H  0.98914577  0.21196504  0.36039848     0.12300
N2399       N  0.91148433  0.25349376  0.31872393     0.61100
H2400       H  0.88776865  0.23322962  0.36472180     0.08500
O2401       O  0.87226468  0.11424582  0.39430616    -0.40400
O2402       O  0.91496426  0.10655277  0.40668711    -0.39600
O2403       O  0.87559681  0.25025794  0.43615069    -0.39600
O2404       O  0.91898971  0.24488779  0.44941368    -0.37300
O2405       O  0.89738873  0.24004114  0.30098687    -0.38200
O2406       O  0.90882179  0.27984360  0.31998491    -0.34300
O2407       O  0.97166706  0.16759484  0.40222116    -0.35700
O2408       O  0.97025974  0.20374111  0.42999173    -0.40000
C2409       C  0.82647707  0.06412421  0.35883319    -0.13700
C2410       C  0.80801075  0.06788848  0.38099149     0.16700
C2411       C  0.77920467  0.06328728  0.37641522     0.03000
C2412       C  0.76972285  0.05388300  0.35023579    -0.12200
C2413       C  0.78857565  0.04859825  0.32849468    -0.03300
C2414       C  0.81729050  0.05447221  0.33300559     0.02200
C2415       C  0.81961632  0.07861963  0.40770056     0.09000
N2416       N  0.75942902  0.06739383  0.39824323     0.65400
H2417       H  0.74762680  0.05003195  0.34718677     0.18300
N2418       N  0.83754417  0.05171987  0.31137839     0.75900
H2419       H  0.84837761  0.06921561  0.36139107     0.09800
C2420       C  0.84339039  0.06585083  0.42036172     0.03500
C2421       C  0.85732857  0.07934879  0.44217065    -0.05200
C2422       C  0.84805338  0.10547391  0.45181567    -0.23600
C2423       C  0.82379516  0.11777748  0.44001684     0.12800
C2424       C  0.80987833  0.10438180  0.41802582    -0.12700
N2425       N  0.85442484  0.03981913  0.41045440     0.64400
H2426       H  0.87560465  0.06947327  0.45161222     0.12300
N2427       N  0.81294303  0.14371800  0.45024555     0.61100
H2428       H  0.79214465  0.11480357  0.40819583     0.08500
O2429       O  0.85510446  0.03185682  0.31260594    -0.40400
O2430       O  0.84163033  0.07207397  0.29487133    -0.39600
O2431       O  0.74295738  0.08817668  0.39702614    -0.39600
O2432       O  0.75440552  0.04747372  0.41499596    -0.37300
O2433       O  0.82045864  0.16650255  0.43900417    -0.38200
O2434       O  0.79129657  0.14343114  0.46512372    -0.34300
O2435       O  0.87813778  0.03929427  0.39909016    -0.35700
O2436       O  0.84323358  0.01704005  0.41782441    -0.40000
C2437       C  0.86265443  0.02878476  0.52021634    -0.13700
C2438       C  0.84124521  0.01738957  0.50400164     0.16700
C2439       C  0.82088981  0.03596485  0.49270111     0.03000
C2440       C  0.82449875  0.06535983  0.49486748    -0.12200
C2441       C  0.84831532  0.07685618  0.50804922    -0.03300
C2442       C  0.86648746  0.05779130  0.52233421     0.02200
C2443       C  0.84193205  0.98630796  0.49890316     0.09000
N2444       N  0.79695431  0.02546672  0.47829769     0.65400
H2445       H  0.80944532  0.07914288  0.48468925     0.18300
N2446       N  0.89032587  0.06685885  0.53775674     0.75900
H2447       H  0.87750533  0.01489684  0.53061536     0.09800
C2448       C  0.86624059  0.97338691  0.48830408     0.03500
C2449       C  0.86859123  0.94411813  0.48784975    -0.05200
C2450       C  0.84766407  0.92638253  0.49816825    -0.23600
C2451       C  0.82231374  0.93922900  0.50685152     0.12800
C2452       C  0.81985675  0.96889408  0.50734112    -0.12700
N2453       N  0.88942361  0.98963593  0.47877355     0.64400
H2454       H  0.88758545  0.93525166  0.48021684     0.12300
N2455       N  0.79837153  0.92307847  0.51406271     0.61100
H2456       H  0.80088500  0.97828666  0.51525975     0.08500
O2457       O  0.91386343  0.06396760  0.52655304    -0.40400
O2458       O  0.88921702  0.06550241  0.56405503    -0.39600
O2459       O  0.77395804  0.02388973  0.49092215    -0.39600
O2460       O  0.79733408  0.02326580  0.45206462    -0.37300
O2461       O  0.77907732  0.92121532  0.49608266    -0.38200
O2462       O  0.79196684  0.92086366  0.53948801    -0.34300
O2463       O  0.91091918  0.99141431  0.49408957    -0.35700
O2464       O  0.89134914  0.99539348  0.45307363    -0.40000
C2465       C  0.16372693  0.07333468  0.58325018    -0.13700
C2466       C  0.18974021  0.08531903  0.58963867     0.16700
C2467       C  0.19908933  0.10775195  0.57284616     0.03000
C2468       C  0.18180276  0.11889991  0.55150746    -0.12200
C2469       C  0.15542941  0.10744143  0.54543198    -0.03300
C2470       C  0.14672928  0.08343278  0.56094037     0.02200
C2471       C  0.20563605  0.07515879  0.61503806     0.09000
N2472       N  0.22634340  0.11911041  0.57682570     0.65400
H2473       H  0.18946136  0.13616652  0.53886750     0.18300
N2474       N  0.12169661  0.06823432  0.55400355     0.75900
H2475       H  0.15669016  0.05573864  0.59582320     0.09800
C2476       C  0.19494334  0.08013319  0.64188703     0.03500
C2477       C  0.20778367  0.06805647  0.66550547    -0.05200
C2478       C  0.23142620  0.05043384  0.66353472    -0.23600
C2479       C  0.24337220  0.04676289  0.63685358     0.12800
C2480       C  0.23035197  0.05899770  0.61285563    -0.12700
N2481       N  0.17056309  0.09712151  0.64553138     0.64400
H2482       H  0.19828794  0.07155561  0.68571055     0.12300
N2483       N  0.26789047  0.02994031  0.63356416     0.61100
H2484       H  0.23902730  0.05506637  0.59239698     0.08500
O2485       O  0.10195566  0.07964765  0.54042916    -0.40400
O2486       O  0.11911389  0.04299308  0.56181121    -0.39600
O2487       O  0.24652437  0.10913776  0.56319231    -0.39600
O2488       O  0.22914134  0.14228880  0.58909107    -0.37300
O2489       O  0.29151550  0.04154092  0.63434843    -0.38200
O2490       O  0.26580365  0.00553128  0.62373244    -0.34300
O2491       O  0.14733712  0.08554447  0.64995200    -0.35700
O2492       O  0.17333487  0.12295614  0.65037570    -0.40000
C2493       C  0.06445595  0.20628427  0.62769412    -0.13700
C2494       C  0.09235570  0.19751225  0.62781750     0.16700
C2495       C  0.10957105  0.20467760  0.65067846     0.03000
C2496       C  0.09826065  0.21918446  0.67351666    -0.12200
C2497       C  0.06975656  0.22660052  0.67415923    -0.03300
C2498       C  0.05300342  0.22043166  0.65044172     0.02200
C2499       C  0.10278742  0.18155995  0.60339087     0.09000
N2500       N  0.13798883  0.19549187  0.65198339     0.65400
H2501       H  0.11147749  0.22299890  0.69155568     0.18300
N2502       N  0.02395205  0.22726795  0.64933109     0.75900
H2503       H  0.05122831  0.20177544  0.60981703     0.09800
C2504       C  0.09044788  0.15592047  0.59539571     0.03500
C2505       C  0.09785580  0.14340707  0.57013722    -0.05200
C2506       C  0.11711642  0.15615208  0.55221344    -0.23600
C2507       C  0.13034266  0.18107983  0.56067348     0.12800
C2508       C  0.12315065  0.19356207  0.58611526    -0.12700
N2509       N  0.07015760  0.14238558  0.61257112     0.64400
H2510       H  0.08776897  0.12410379  0.56425665     0.12300
N2511       N  0.15100021  0.19403394  0.54351939     0.61100
H2512       H  0.13271413  0.21328007  0.59186497     0.08500
O2513       O  0.00647807  0.20769925  0.64670497    -0.40400
O2514       O  0.01654204  0.25221352  0.64387210    -0.39600
O2515       O  0.15726088  0.21268418  0.64675136    -0.39600
O2516       O  0.14385438  0.17245461  0.66392772    -0.37300
O2517       O  0.17653400  0.18990148  0.54892154    -0.38200
O2518       O  0.14402981  0.21380061  0.52715677    -0.34300
O2519       O  0.04454136  0.14545267  0.60680252    -0.35700
O2520       O  0.07777052  0.12221463  0.62819232    -0.40000
C2521       C  0.12084311  0.20489732  0.41431521    -0.13700
C2522       C  0.09437229  0.20115581  0.40215067     0.16700
C2523       C  0.07626310  0.18092089  0.41381329     0.03000
C2524       C  0.08481991  0.16496387  0.43715351    -0.12200
C2525       C  0.11139721  0.16845499  0.44911715    -0.03300
C2526       C  0.12940423  0.18884534  0.43766310     0.02200
C2527       C  0.08670838  0.21688103  0.37616034     0.09000
N2528       N  0.04992723  0.17486190  0.40108404     0.65400
H2529       H  0.07101899  0.14896404  0.44536404     0.18300
N2530       N  0.15637913  0.19360301  0.44958666     0.75900
H2531       H  0.13498318  0.22026863  0.40553219     0.09800
C2532       C  0.06350918  0.23522913  0.37492333     0.03500
C2533       C  0.05411782  0.24573701  0.34903013    -0.05200
C2534       C  0.06785756  0.23894052  0.32402078    -0.23600
C2535       C  0.09296349  0.22304601  0.32583032     0.12800
C2536       C  0.10183015  0.21186927  0.35168670    -0.12700
N2537       N  0.04951530  0.24368696  0.39980469     0.64400
H2538       H  0.03535977  0.25860209  0.34848558     0.12300
N2539       N  0.10926141  0.21719266  0.30162946     0.61100
H2540       H  0.12014410  0.19836610  0.35249153     0.08500
O2541       O  0.17780925  0.18494887  0.43701271    -0.40400
O2542       O  0.15903179  0.21173760  0.46847197    -0.39600
O2543       O  0.04926981  0.16187731  0.37819877    -0.39600
O2544       O  0.02805766  0.17644450  0.41553793    -0.37300
O2545       O  0.12813787  0.23413800  0.29446942    -0.38200
O2546       O  0.10896576  0.19288726  0.29132159    -0.34300
O2547       O  0.06083159  0.26168935  0.41536178    -0.35700
O2548       O  0.02390168  0.23837260  0.40275208    -0.40000
C2549       C  0.23320065  0.08508021  0.37595108    -0.13700
C2550       C  0.20935113  0.07501641  0.38961399     0.16700
C2551       C  0.19914187  0.04818541  0.38283242     0.03000
C2552       C  0.21081083  0.03330058  0.36074467    -0.12200
C2553       C  0.23292666  0.04446055  0.34518124    -0.03300
C2554       C  0.24525547  0.06988374  0.35398275     0.02200
C2555       C  0.19277636  0.09371004  0.40795963     0.09000
N2556       N  0.17596212  0.03639734  0.39741239     0.65400
H2557       H  0.20151377  0.01348800  0.35480325     0.18300
N2558       N  0.26834507  0.08178712  0.33937041     0.75900
H2559       H  0.24136182  0.10560303  0.38105245     0.09800
C2560       C  0.20352866  0.10497742  0.43280293     0.03500
C2561       C  0.18556484  0.11891173  0.45112711    -0.05200
C2562       C  0.15669643  0.12190411  0.44537127    -0.23600
C2563       C  0.14705083  0.11413148  0.41841638     0.12800
C2564       C  0.16509065  0.09993251  0.40033811    -0.12700
N2565       N  0.23211634  0.10087487  0.44063490     0.64400
H2566       H  0.19384646  0.12560253  0.47113659     0.12300
N2567       N  0.12024074  0.12201673  0.40768681     0.61100
H2568       H  0.15722786  0.09331513  0.38014108     0.08500
O2569       O  0.29272104  0.07889808  0.34925011    -0.40400
O2570       O  0.26397069  0.09901526  0.31959635    -0.39600
O2571       O  0.15270139  0.03391671  0.38511402    -0.39600
O2572       O  0.17991882  0.02448314  0.42077954    -0.37300
O2573       O  0.10124037  0.10382612  0.40691066    -0.38200
O2574       O  0.11933478  0.14173583  0.38988676    -0.34300
O2575       O  0.24894656  0.12107771  0.43849412    -0.35700
O2576       O  0.23910920  0.07936351  0.45467222    -0.40000
C2577       C  0.03471948  0.18919324  0.49325056    -0.13700
C2578       C  0.01814411  0.16617020  0.50126966     0.16700
C2579       C  0.03185768  0.14186615  0.51197900     0.03000
C2580       C  0.06089171  0.13998013  0.51176453    -0.12200
C2581       C  0.07767947  0.16233561  0.50301413    -0.03300
C2582       C  0.06426546  0.18778878  0.49485229     0.02200
C2583       C  0.98719884  0.16560145  0.49570764     0.09000
N2584       N  0.01659200  0.11851533  0.52298039     0.65400
H2585       H  0.07045607  0.12040239  0.51839722     0.18300
N2586       N  0.08006037  0.21242172  0.48871657     0.75900
H2587       H  0.02481263  0.20815172  0.48525729     0.09800
C2588       C  0.96801645  0.18646114  0.50444765     0.03500
C2589       C  0.93892251  0.18161458  0.50232849    -0.05200
C2590       C  0.92863482  0.15542336  0.49342219    -0.23600
C2591       C  0.94811542  0.13530307  0.48394793     0.12800
C2592       C  0.97647384  0.14158752  0.48303644    -0.12700
N2593       N  0.97755577  0.21175875  0.51703053     0.64400
H2594       H  0.92447847  0.19753944  0.50952373     0.12300
N2595       N  0.94061021  0.10660943  0.48027391     0.61100
H2596       H  0.99062653  0.12585014  0.47492033     0.08500
O2597       O  0.09110220  0.22555330  0.50868257    -0.40400
O2598       O  0.07638875  0.22499430  0.46564170    -0.39600
O2599       O  0.01839512  0.09489801  0.51128705    -0.39600
O2600       O  0.00677061  0.11989765  0.54733331    -0.37300
O2601       O  0.95119472  0.08867885  0.49682123    -0.38200
O2602       O  0.93286500  0.09857062  0.45650994    -0.34300
O2603       O  0.97633431  0.23452881  0.50335451    -0.35700
O2604       O  0.98198151  0.21229634  0.54304519    -0.40000
C2605       C  0.07166392  0.84804599  0.58027695    -0.13700
C2606       C  0.08984990  0.83013683  0.59519441     0.16700
C2607       C  0.11675953  0.82498356  0.58461659     0.03000
C2608       C  0.12503474  0.83784974  0.55964296    -0.12200
C2609       C  0.10706181  0.85614007  0.54483186    -0.03300
C2610       C  0.07993260  0.86143560  0.55548089     0.02200
C2611       C  0.07984005  0.81656217  0.62128748     0.09000
N2612       N  0.13596924  0.80679433  0.59901099     0.65400
H2613       H  0.14566913  0.83332739  0.55156665     0.18300
N2614       N  0.06044048  0.88012041  0.54178990     0.75900
H2615       H  0.05076816  0.85171375  0.58806653     0.09800
C2616       C  0.06879086  0.83275898  0.64311505     0.03500
C2617       C  0.05735463  0.81950150  0.66643862    -0.05200
C2618       C  0.05686145  0.78999482  0.66906759    -0.23600
C2619       C  0.06832912  0.77374889  0.64733344     0.12800
C2620       C  0.07941521  0.78711974  0.62362359    -0.12700
N2621       N  0.06951459  0.86279560  0.64221062     0.64400
H2622       H  0.04918649  0.83271609  0.68283776     0.12300
N2623       N  0.06860620  0.74377108  0.64869991     0.61100
H2624       H  0.08720783  0.77438787  0.60668566     0.08500
O2625       O  0.03492443  0.87367023  0.54067264    -0.40400
O2626       O  0.06733963  0.90500705  0.53602320    -0.39600
O2627       O  0.14059202  0.78250760  0.58966311    -0.39600
O2628       O  0.15224152  0.81683023  0.61717443    -0.37300
O2629       O  0.04871789  0.73023108  0.63794897    -0.38200
O2630       O  0.09084418  0.73102215  0.65556015    -0.34300
O2631       O  0.04695645  0.87652952  0.63996813    -0.35700
O2632       O  0.09154193  0.87530745  0.64946113    -0.40000
C2633       C  0.16371480  0.91942851  0.58614868    -0.13700
C2634       C  0.19256168  0.91461844  0.58497460     0.16700
C2635       C  0.20318231  0.89720242  0.56387987     0.03000
C2636       C  0.18510606  0.88725267  0.54306132    -0.12200
C2637       C  0.15650533  0.89437604  0.54275792    -0.03300
C2638       C  0.14568729  0.90989545  0.56532220     0.02200
C2639       C  0.21018730  0.92737864  0.60700028     0.09000
N2640       N  0.23215367  0.88984309  0.56297285     0.65400
H2641       H  0.19362709  0.87457995  0.52641094     0.18300
N2642       N  0.11692509  0.91748645  0.56728623     0.75900
H2643       H  0.15504646  0.93139527  0.60323706     0.09800
C2644       C  0.20674953  0.95606815  0.61355301     0.03500
C2645       C  0.21602992  0.96611348  0.63921023    -0.05200
C2646       C  0.23014567  0.94840770  0.65800231    -0.23600
C2647       C  0.23644678  0.92054510  0.65032166     0.12800
C2648       C  0.22606471  0.91008896  0.62501950    -0.12700
N2649       N  0.19345689  0.97514137  0.59441089     0.64400
H2650       H  0.21166765  0.98773935  0.64474985     0.12300
N2651       N  0.25068821  0.90185109  0.66919688     0.61100
H2652       H  0.22859152  0.88795392  0.62056164     0.08500
O2653       O  0.10350298  0.90905661  0.58835168    -0.40400
O2654       O  0.10872109  0.93957606  0.55494714    -0.39600
O2655       O  0.23968132  0.86496335  0.56861761    -0.39600
O2656       O  0.24933450  0.90653806  0.55195984    -0.37300
O2657       O  0.23681404  0.88750133  0.68645518    -0.38200
O2658       O  0.27596340  0.89566238  0.66493167    -0.34300
O2659       O  0.17020878  0.98605358  0.60050146    -0.35700
O2660       O  0.20779705  0.98587449  0.57513166    -0.40000
C2661       C  0.09105777  0.83727292  0.39828332    -0.13700
C2662       C  0.09127087  0.80826024  0.40363098     0.16700
C2663       C  0.10738071  0.79768146  0.42607100     0.03000
C2664       C  0.11943757  0.81643089  0.44491282    -0.12200
C2665       C  0.11540558  0.84558256  0.44201365    -0.03300
C2666       C  0.10240842  0.85614586  0.41736657     0.02200
C2667       C  0.07347705  0.79018051  0.38597581     0.09000
N2668       N  0.11067427  0.76815299  0.43073652     0.65400
H2669       H  0.13080880  0.80817605  0.46285836     0.18300
N2670       N  0.09962517  0.88552600  0.41127876     0.75900
H2671       H  0.08051462  0.84548757  0.37979392     0.09800
C2672       C  0.04515293  0.79746327  0.38142828     0.03500
C2673       C  0.03025851  0.78516028  0.35975099    -0.05200
C2674       C  0.04303837  0.76560685  0.34233593    -0.23600
C2675       C  0.07019199  0.75561291  0.34892389     0.12800
C2676       C  0.08532447  0.76817427  0.37063725    -0.12700
N2677       N  0.03200046  0.81924178  0.39702782     0.64400
H2678       H  0.00926410  0.79262897  0.35508268     0.12300
N2679       N  0.08385130  0.73531581  0.33180139     0.61100
H2680       H  0.10704382  0.76239497  0.37383746     0.08500
O2681       O  0.11012762  0.89477797  0.38892041    -0.40400
O2682       O  0.07961755  0.89906581  0.42173361    -0.39600
O2683       O  0.13436835  0.75683444  0.42775293    -0.39600
O2684       O  0.09102925  0.75417013  0.44132127    -0.37300
O2685       O  0.09670349  0.74319002  0.31020224    -0.38200
O2686       O  0.08702654  0.71046152  0.34070106    -0.34300
O2687       O  0.02466029  0.84179261  0.38490583    -0.35700
O2688       O  0.02432686  0.81446061  0.42176297    -0.40000
C2689       C  0.19913995  0.87653521  0.41060949    -0.13700
C2690       C  0.19413060  0.90064156  0.39430630     0.16700
C2691       C  0.17180406  0.91867206  0.40124240     0.03000
C2692       C  0.15568661  0.91312057  0.42502396    -0.12200
C2693       C  0.16052741  0.88890050  0.44136143    -0.03300
C2694       C  0.18252823  0.87053662  0.43398447     0.02200
C2695       C  0.21196258  0.90702350  0.36985907     0.09000
N2696       N  0.16444080  0.94185900  0.38341264     0.65400
H2697       H  0.13882953  0.92735674  0.43034853     0.18300
N2698       N  0.18898540  0.84633155  0.45073138     0.75900
H2699       H  0.21623550  0.86255141  0.40539111     0.09800
C2700       C  0.23269668  0.92784325  0.37120900     0.03500
C2701       C  0.24450094  0.93827492  0.34655925    -0.05200
C2702       C  0.23630720  0.92806447  0.32029299    -0.23600
C2703       C  0.21797653  0.90483240  0.31930531     0.12800
C2704       C  0.20568462  0.89484278  0.34403712    -0.12700
N2705       N  0.24100811  0.93955184  0.39735053     0.64400
H2706       H  0.25874168  0.95585591  0.34784962     0.12300
N2707       N  0.20958909  0.89282274  0.29331223     0.61100
H2708       H  0.19001465  0.87853455  0.34288682     0.08500
O2709       O  0.18449083  0.82217084  0.44110044    -0.40400
O2710       O  0.20446305  0.84889310  0.47200903    -0.39600
O2711       O  0.15030399  0.93774413  0.36146926    -0.39600
O2712       O  0.17387567  0.96601406  0.38833098    -0.37300
O2713       O  0.22541183  0.87509380  0.28186391    -0.38200
O2714       O  0.18429733  0.89432017  0.28581807    -0.34300
O2715       O  0.25978068  0.92732778  0.41165975    -0.35700
O2716       O  0.23440814  0.96457761  0.40295121    -0.40000
C2717       C  0.18021477  0.97171785  0.48202112    -0.13700
C2718       C  0.15676790  0.98837247  0.48859740     0.16700
C2719       C  0.13167654  0.97454979  0.49603304     0.03000
C2720       C  0.13032213  0.94538460  0.49578515    -0.12200
C2721       C  0.15379724  0.92880886  0.49033368    -0.03300
C2722       C  0.17916486  0.94213842  0.48359611     0.02200
C2723       C  0.15732678  0.01976020  0.48574207     0.09000
N2724       N  0.10726512  0.98967931  0.50444936     0.65400
H2725       H  0.11056219  0.93541196  0.50046989     0.18300
N2726       N  0.20390899  0.92621846  0.47830161     0.75900
H2727       H  0.19931910  0.98150586  0.47520430     0.09800
C2728       C  0.17787188  0.03701276  0.49822257     0.03500
C2729       C  0.17374674  0.06624505  0.49923455    -0.05200
C2730       C  0.14893558  0.07867725  0.48925575    -0.23600
C2731       C  0.12933684  0.06161994  0.47508033     0.12800
C2732       C  0.13471248  0.03291029  0.47212389    -0.12700
N2733       N  0.20235351  0.02549359  0.51121715     0.64400
H2734       H  0.18965269  0.07914538  0.50880179     0.01500
N2735       N  0.10269358  0.07226523  0.46578152     0.61100
H2736       H  0.11965359  0.02023945  0.46099060     0.08500
O2737       O  0.21899361  0.91839225  0.49866136    -0.40400
O2738       O  0.21444266  0.92703297  0.45423687    -0.39600
O2739       O  0.08524358  0.98810903  0.48987539    -0.39600
O2740       O  0.10557950  0.99799300  0.52932603    -0.37300
O2741       O  0.08715616  0.08482924  0.48284550    -0.38200
O2742       O  0.09182476  0.06270729  0.44373661    -0.34300
O2743       O  0.22386534  0.02191323  0.49654146    -0.35700
O2744       O  0.20530055  0.02817808  0.53726650    -0.40000
C2745       C  0.03624843  0.81973584  0.50262384    -0.13700
C2746       C  0.01822682  0.83901062  0.48896697     0.16700
C2747       C  0.03024628  0.86123828  0.47345284     0.03000
C2748       C  0.05880411  0.86619620  0.47547474    -0.12200
C2749       C  0.07697165  0.84770713  0.48947913    -0.03300
C2750       C  0.06558991  0.82324745  0.50211344     0.02200
C2751       C  0.98762463  0.84004958  0.49540783     0.09000
N2752       N  0.01339443  0.88017482  0.45696192     0.65400
H2753       H  0.06680341  0.88559001  0.46712005     0.18300
N2754       N  0.08307654  0.80239378  0.51519346     0.75900
H2755       H  0.02752957  0.80250957  0.51456842     0.09800
C2756       C  0.96902587  0.81709549  0.49326496     0.03500
C2757       C  0.93999948  0.82152420  0.49723827    -0.05200
C2758       C  0.92923116  0.84860213  0.50248573    -0.23600
C2759       C  0.94830941  0.87082188  0.50599361     0.12800
C2760       C  0.97686500  0.86594885  0.50391470    -0.12700
N2761       N  0.97901485  0.78949899  0.48681964     0.64400
H2762       H  0.92583158  0.80406459  0.49504604     0.12300
N2763       N  0.93921172  0.89937404  0.50754699     0.61100
H2764       H  0.99077835  0.88352935  0.50697969     0.08500
O2765       O  0.09950544  0.78816954  0.50037417    -0.40400
O2766       O  0.07723942  0.79350617  0.53937876    -0.39600
O2767       O  0.01399130  0.90622503  0.46166184    -0.39600
O2768       O  0.00138893  0.87145204  0.43516825    -0.37300
O2769       O  0.92994736  0.91070178  0.48544392    -0.38200
O2770       O  0.94975423  0.91496741  0.52597863    -0.34300
O2771       O  0.97196663  0.76879342  0.50178979    -0.35700
O2772       O  0.99523319  0.78571723  0.46650977    -0.40000
loop_ 
_geom_bond_atom_site_label_1 
_geom_bond_atom_site_label_2 
_geom_bond_distance 
_geom_bond_site_symmetry_2 
_ccdc_geom_bond_type 
C1            C2   1.429       .  A
C1            C6   1.422       .  A
C1         C2749   1.504       .  S
C2            C3   1.418       .  A
C2         C2665   1.488       .  S
C3            C4   1.409       .  A
C3         C2693   1.492       .  S
C4            C5   1.414       .  A
C4         C2721   1.489       .  S
C5            C6   1.421       .  A
C5         C2637   1.493       .  S
C6         C2609   1.489       .  S
C7            C8   1.422       .  A
C7           C12   1.415       .  A
C7         C2730   1.496       .  S
C8            C9   1.427       .  A
C8         C2562   1.508       .  S
C9           C10   1.427       .  A
C9         C2525   1.488       .  S
C10          C11   1.425       .  A
C10        C2581   1.507       .  S
C11          C12   1.418       .  A
C11        C2506   1.487       .  S
C12        C2469   1.506       .  S
C13          C14   1.419       .  A
C13          C18   1.418       .  A
C13        C2590   1.507       .  S
C14          C15   1.428       .  A
C14        C2329   1.484       .  S
C15          C16   1.423       .  A
C15        C2357   1.513       .  S
C16          C17   1.434       .  A
C16        C2441   1.521       .  S
C17          C18   1.430       .  A
C17        C2422   1.476       .  S
C18        C2385   1.522       .  S
C19          C20   1.417       .  A
C19          C24   1.419       .  A
C19        C2758   1.503       .  S
C20          C21   1.428       .  A
C20        C2301   1.502       .  S
C21          C22   1.431       .  A
C21        C2273   1.502       .  S
C22          C23   1.437       .  A
C22        C2450   1.518       .  S
C23          C24   1.435       .  A
C23        C2245   1.492       .  S
C24        C2217   1.520       .  S
C25          C26   1.417       .  A
C25          C30   1.424       .  A
C25        C2189   1.503       .  S
C26          C27   1.420       .  A
C26        C2142   1.504       .  S
C27          C28   1.419       .  A
C27        C2105   1.480       .  S
C28          C29   1.414       .  A
C28        C2170   1.496       .  S
C29          C30   1.424       .  A
C29        C2058   1.500       .  S
C30        C2077   1.480       .  S
C31          C32   1.417       .  A
C31          C36   1.420       .  A
C31        C2198   1.484       .  S
C32          C33   1.421       .  A
C32        C1993   1.500       .  S
C33          C34   1.428       .  A
C33        C1965   1.504       .  S
C34          C35   1.430       .  A
C34        C2021   1.501       .  S
C35          C36   1.428       .  A
C35        C1909   1.504       .  S
C36        C1937   1.509       .  S
C37          C38   1.414       .  A
C37          C42   1.419       .  A
C37        C2161   1.489       .  S
C38          C39   1.420       .  A
C38        C1825   1.501       .  S
C39          C40   1.425       .  A
C39        C1862   1.485       .  S
C40          C41   1.429       .  A
C40        C1881   1.522       .  S
C41          C42   1.428       .  A
C41        C1806   1.494       .  S
C42        C1778   1.505       .  S
C43          C44   1.410       .  A
C43          C48   1.420       .  A
C43        C2030   1.505       .  S
C44          C45   1.425       .  A
C44        C1666   1.503       .  S
C45          C46   1.428       .  A
C45        C1694   1.481       .  S
C46          C47   1.421       .  A
C46        C1890   1.505       .  S
C47          C48   1.423       .  A
C47        C1741   1.515       .  S
C48        C1713   1.474       .  S
C49          C50   1.420       .  A
C49          C54   1.418       .  A
C49        C1629   1.510       .  S
C50          C51   1.432       .  A
C50        C1545   1.503       .  S
C51          C52   1.429       .  A
C51        C1573   1.493       .  S
C52          C53   1.423       .  A
C52        C1601   1.507       .  S
C53          C54   1.423       .  A
C53        C1517   1.507       .  S
C54        C1489   1.482       .  S
C55          C56   1.424       .  A
C55          C60   1.421       .  A
C55        C1610   1.503       .  S
C56          C57   1.425       .  A
C56        C1377   1.489       .  S
C57          C58   1.413       .  A
C57        C1349   1.499       .  S
C58          C59   1.414       .  A
C58        C1461   1.490       .  S
C59          C60   1.422       .  A
C59        C1414   1.495       .  S
C60        C1433   1.492       .  S
C61          C62   1.418       .  A
C61          C66   1.422       .  A
C61        C1470   1.506       .  S
C62          C63   1.424       .  A
C62        C1265   1.504       .  S
C63          C64   1.422       .  A
C63        C1302   1.474       .  S
C64          C65   1.416       .  A
C64        C1330   1.510       .  S
C65          C66   1.425       .  A
C65        C1237   1.493       .  S
C66        C1209   1.488       .  S
C67          C68   1.432       .  A
C67          C72   1.428       .  A
C67        C1638   1.520       .  S
C68          C69   1.434       .  A
C68        C1153   1.495       .  S
C69          C70   1.421       .  A
C69        C1190   1.512       .  S
C70          C71   1.422       .  A
C70        C1321   1.513       .  S
C71          C72   1.427       .  A
C71        C1134   1.491       .  S
C72        C1106   1.510       .  S
O73          C81   1.261       .  A
O73         Co93   1.981       .  S
O74          C82   1.262       .  A
O74         Co94   1.893       .  S
O75          C83   1.278       .  A
O75         Co95   2.024       .  S
O76          C84   1.264       .  A
O76         Co96   1.996       .  S
O77          C83   1.267       .  A
O77         Co94   1.967   1_565  S
O78          C84   1.262       .  A
O78         Co93   1.964   1_545  S
O79          C82   1.293       .  A
O79         Co96   2.117       .  S
O80          C81   1.267       .  A
O80         Co95   2.007       .  S
C81        C1069   1.480       .  S
C82        C1013   1.470       .  S
C83         C985   1.478       .  S
C84        C1050   1.469       .  S
O85          C98   1.277       .  A
O85         Co93   2.006   1_545  S
O86          C99   1.260       .  A
O86         Co94   1.991   1_565  S
O87         C100   1.266       .  A
O87         Co95   1.957       .  S
O88         C101   1.277       .  A
O88         Co96   1.931       .  S
O89         C101   1.294       .  A
O89         Co94   2.083       .  S
O90         C100   1.279       .  A
O90         Co93   2.017       .  S
O91          C98   1.285       .  A
O91         Co96   2.022       .  S
O92          C99   1.259       .  A
O92         Co95   1.981       .  S
Co93         O97   1.997       .  S
Co94         O97   1.993   1_545  S
Co95         O97   2.048       .  S
Co96         O97   2.034   1_545  S
C98        C2478   1.501       .  S
C99        C1722   1.465       .  S
C100       C2646   1.463       .  S
C101       C1974   1.499       .  S
O102        C110   1.262       .  A
O102       Co122   1.894       .  S
O103        C111   1.256       .  A
O103       Co123   1.965   1_655  S
O104        C112   1.272       .  A
O104       Co124   2.011       .  S
O105        C113   1.279       .  A
O105       Co125   2.027       .  S
O106        C112   1.261       .  A
O106       Co123   1.970       .  S
O107        C113   1.273       .  A
O107       Co122   1.977   1_655  S
O108        C111   1.264       .  A
O108       Co125   1.991       .  S
O109        C110   1.291       .  A
O109       Co124   2.105       .  S
C110       C1041   1.467       .  S
C111        C901   1.459       .  S
C112        C929   1.480       .  S
C113        C957   1.488       .  S
O114        C127   1.257       .  A
O114       Co122   1.968   1_655  S
O115        C128   1.273       .  A
O115       Co123   2.004       .  S
O116        C129   1.278       .  A
O116       Co124   1.906       .  S
O117        C130   1.276       .  A
O117       Co125   1.975       .  S
O118        C130   1.281       .  A
O118       Co123   2.021   1_655  S
O119        C129   1.298       .  A
O119       Co122   2.106       .  S
O120        C127   1.270       .  A
O120       Co125   2.007       .  S
O121        C128   1.280       .  A
O121       Co124   2.012       .  S
Co122       O126   1.974       .  S
Co123       O126   2.003       .  S
Co124       O126   2.012       .  S
Co125       O126   2.056   1_655  S
C127       C2338   1.487       .  S
C128       C1554   1.501       .  S
C129       C2497   1.493       .  S
C130       C1162   1.474       .  S
O131        C139   1.258       .  A
O131       Co151   1.958   1_455  S
O132        C140   1.265       .  A
O132       Co152   1.900       .  S
O133        C141   1.279       .  A
O133       Co153   2.012       .  S
O134        C142   1.271       .  A
O134       Co154   2.006       .  S
O135        C141   1.271       .  A
O135       Co152   1.983   1_455  S
O136        C142   1.265       .  A
O136       Co151   1.986       .  S
O137        C140   1.290       .  A
O137       Co154   2.104       .  S
O138        C139   1.270       .  A
O138       Co153   2.032       .  S
C139        C826   1.484       .  S
C140        C854   1.473       .  S
C141        C873   1.485       .  S
C142        C789   1.490       .  S
O143        C156   1.271       .  A
O143       Co151   2.006       .  S
O144        C157   1.264       .  A
O144       Co152   1.996   1_455  S
O145        C158   1.267       .  A
O145       Co153   1.955       .  S
O146        C159   1.274       .  A
O146       Co154   1.883       .  S
O147        C159   1.303       .  A
O147       Co152   2.121       .  S
O148        C158   1.282       .  A
O148       Co151   2.019   1_455  S
O149        C156   1.278       .  A
O149       Co154   2.008       .  S
O150        C157   1.267       .  A
O150       Co153   2.007       .  S
Co151       O155   2.008   1_655  S
Co152       O155   1.985   1_655  S
Co153       O155   2.057       .  S
Co154       O155   1.989   1_655  S
C156       C2310   1.489       .  S
C157       C1358   1.497       .  S
C158       C2674   1.465       .  S
C159       C1218   1.480       .  S
O160        C168   1.271       .  A
O160       Co180   1.984       .  S
O161        C169   1.250       .  A
O161       Co181   1.968   1_556  S
O162        C170   1.275       .  A
O162       Co182   2.004       .  S
O163        C171   1.258       .  A
O163       Co183   2.031       .  S
O164        C170   1.269       .  A
O164       Co181   1.994       .  S
O165        C171   1.244       .  A
O165       Co180   1.962   1_556  S
O166        C169   1.260       .  A
O166       Co183   2.022       .  S
O167        C168   1.275       .  A
O167       Co182   2.005       .  S
C168       C1853   1.474       .  S
C169       C1526   1.500       .  S
C170       C1386   1.481       .  S
C171       C1750   1.506       .  S
O172        C185   1.273       .  A
O172       Co180   1.915   1_556  S
O173        C186   1.265       .  A
O173       Co181   1.995       .  S
O174        C187   1.265       .  A
O174       Co182   1.996       .  S
O175        C188   1.283       .  A
O175       Co183   2.038       .  S
O176        C188   1.273       .  A
O176       Co181   1.920   1_556  S
O177        C187   1.263       .  A
O177       Co180   1.991       .  S
O178        C185   1.288       .  A
O178       Co183   2.053       .  S
O179        C186   1.267       .  A
O179       Co182   2.008       .  S
Co180       O184   1.933       .  S
Co181       O184   1.960       .  S
Co182       O184   2.099       .  S
Co183       O184   2.253   1_556  S
C185        C994   1.474       .  S
C186        C882   1.485       .  S
C187        C733   1.486       .  S
C188        C770   1.478       .  S
O189        C197   1.267       .  A
O189       Co209   1.967       .  S
O190        C198   1.255       .  A
O190       Co210   1.967   1_655  S
O191        C199   1.277       .  A
O191       Co211   2.037       .  S
O192        C200   1.300       .  A
O192       Co212   2.110       .  S
O193        C199   1.259       .  A
O193       Co210   1.959       .  S
O194        C200   1.264       .  A
O194       Co209   1.884   1_655  S
O195        C198   1.260       .  A
O195       Co212   2.025       .  S
O196        C197   1.279       .  A
O196       Co211   2.036       .  S
C197       C2534   1.493       .  S
C198       C1274   1.504       .  S
C199       C1405   1.494       .  S
C200       C2394   1.489       .  S
O201        C214   1.294       .  A
O201       Co209   2.108   1_655  S
O202        C215   1.271       .  A
O202       Co210   2.027       .  S
O203        C216   1.255       .  A
O203       Co211   1.981       .  S
O204        C217   1.266       .  A
O204       Co212   1.959       .  S
O205        C217   1.278       .  A
O205       Co210   2.031   1_655  S
O206        C216   1.264       .  A
O206       Co209   2.022       .  S
O207        C214   1.261       .  A
O207       Co212   1.888       .  S
O208        C215   1.259       .  A
O208       Co211   1.962       .  S
Co209       O213   2.008       .  S
Co210       O213   2.043       .  S
Co211       O213   2.036       .  S
Co212       O213   2.022   1_655  S
C214        C686   1.471       .  S
C215        C621   1.487       .  S
C216        C705   1.499       .  S
C217        C658   1.481       .  S
O218        C226   1.244       .  A
O218       Co238   1.954       .  S
O219        C227   1.267       .  A
O219       Co239   1.993       .  S
O220        C228   1.259       .  A
O220       Co240   2.020       .  S
O221        C229   1.270       .  A
O221       Co241   1.985       .  S
O222        C228   1.250       .  A
O222       Co239   1.961   1_565  S
O223        C229   1.274       .  A
O223       Co238   2.000   1_545  S
O224        C227   1.267       .  A
O224       Co241   1.998       .  S
O225        C226   1.255       .  A
O225       Co240   2.021       .  S
C226       C2702   1.485       .  S
C227       C2114   1.475       .  S
C228       C1834   1.498       .  S
C229       C2553   1.482       .  S
O230        C243   1.264       .  A
O230       Co238   2.000   1_545  S
O231        C244   1.267       .  A
O231       Co239   1.896   1_565  S
O232        C245   1.292       .  A
O232       Co240   2.057       .  S
O233        C246   1.266       .  A
O233       Co241   2.007       .  S
O234        C246   1.259       .  A
O234       Co239   1.983       .  S
O235        C245   1.273       .  A
O235       Co238   1.910       .  S
O236        C243   1.265       .  A
O236       Co241   2.006       .  S
O237        C244   1.291       .  A
O237       Co240   2.062       .  S
Co238       O242   1.922   1_565  S
Co239       O242   1.922       .  S
Co240       O242   2.266   1_565  S
Co241       O242   2.099       .  S
C243        C714   1.498       .  S
C244        C742   1.460       .  S
C245        C817   1.487       .  S
C246        C593   1.462       .  S
O247        C255   1.262       .  A
O247       Co267   1.987       .  S
O248        C256   1.266       .  A
O248       Co268   1.976   1_556  S
O249        C257   1.299       .  A
O249       Co269   2.135       .  S
O250        C258   1.269       .  A
O250       Co270   2.007       .  S
O251        C257   1.262       .  A
O251       Co268   1.883       .  S
O252        C258   1.264       .  A
O252       Co267   1.971   1_556  S
O253        C256   1.274       .  A
O253       Co270   2.008       .  S
O254        C255   1.264       .  A
O254       Co269   1.998       .  S
C255        C602   1.489       .  S
C256        C938   1.464       .  S
C257        C630   1.491       .  S
C258       C1022   1.479       .  S
O259        C272   1.275       .  A
O259       Co267   2.011   1_556  S
O260        C273   1.300       .  A
O260       Co268   2.120       .  S
O261        C274   1.275       .  A
O261       Co269   1.992       .  S
O262        C275   1.268       .  A
O262       Co270   1.996       .  S
O263        C275   1.263       .  A
O263       Co268   1.990   1_556  S
O264        C274   1.277       .  A
O264       Co267   2.011       .  S
O265        C272   1.272       .  A
O265       Co270   1.979       .  S
O266        C273   1.267       .  A
O266       Co269   1.896       .  S
Co267       O271   2.019   1_554  S
Co268       O271   1.988   1_554  S
Co269       O271   2.013   1_554  S
Co270       O271   2.062       .  S
C272       C2002   1.481       .  S
C273       C1442   1.488       .  S
C274       C2133   1.476       .  S
C275       C1582   1.476       .  S
O276        C284   1.275       .  A
O276       Co296   2.002   1_545  S
O277        C285   1.298       .  A
O277       Co297   2.104       .  S
O278        C286   1.271       .  A
O278       Co298   2.007       .  S
O279        C287   1.281       .  A
O279       Co299   2.011       .  S
O280        C286   1.261       .  A
O280       Co297   1.977   1_545  S
O281        C287   1.276       .  A
O281       Co296   2.008       .  S
O282        C285   1.273       .  A
O282       Co299   1.912       .  S
O283        C284   1.277       .  A
O283       Co298   1.988       .  S
C284       C2413   1.488       .  S
C285       C1769   1.491       .  S
C286       C2049   1.485       .  S
C287       C2282   1.495       .  S
O288        C301   1.263       .  A
O288       Co296   1.978       .  S
O289        C302   1.267       .  A
O289       Co297   1.975   1_545  S
O290        C303   1.270       .  A
O290       Co298   2.010       .  S
O291        C304   1.292       .  A
O291       Co299   2.110       .  S
O292        C304   1.263       .  A
O292       Co297   1.888       .  S
O293        C303   1.261       .  A
O293       Co296   1.969   1_545  S
O294        C301   1.265       .  A
O294       Co299   1.999       .  S
O295        C302   1.276       .  A
O295       Co298   2.026       .  S
Co296       O300   2.014   1_565  S
Co297       O300   1.984   1_565  S
Co298       O300   2.065       .  S
Co299       O300   2.013   1_565  S
C301        C798   1.471       .  S
C302        C546   1.470       .  S
C303        C677   1.478       .  S
C304        C574   1.460       .  S
O305        C313   1.259       .  A
O305       Co325   1.971   1_554  S
O306        C314   1.274       .  A
O306       Co326   2.003   1_556  S
O307        C315   1.278       .  A
O307       Co327   1.980       .  S
O308        C316   1.275       .  A
O308       Co328   1.899       .  S
O309        C315   1.274       .  A
O309       Co326   1.996       .  S
O310        C316   1.303       .  A
O310       Co325   2.123       .  S
O311        C314   1.283       .  A
O311       Co328   2.026       .  S
O312        C313   1.270       .  A
O312       Co327   2.007       .  S
C313       C2086   1.478       .  S
C314       C1181   1.506       .  S
C315       C1293   1.469       .  S
C316       C1946   1.485       .  S
O317        C330   1.264       .  A
O317       Co325   1.898       .  S
O318        C331   1.261       .  A
O318       Co326   1.970       .  S
O319        C332   1.279       .  A
O319       Co327   2.025       .  S
O320        C333   1.267       .  A
O320       Co328   1.985       .  S
O321        C333   1.262       .  A
O321       Co326   1.966   1_556  S
O322        C332   1.272       .  A
O322       Co325   1.976   1_554  S
O323        C330   1.293       .  A
O323       Co328   2.121       .  S
O324        C331   1.269       .  A
O324       Co327   2.004       .  S
Co325       O329   1.978   1_556  S
Co326       O329   1.999       .  S
Co327       O329   2.044       .  S
Co328       O329   2.001   1_556  S
C330        C509   1.472       .  S
C331        C649   1.483       .  S
C332        C537   1.484       .  S
C333        C910   1.466       .  S
O334        C342   1.279       .  A
O334       Co354   1.988       .  S
O335        C343   1.289       .  A
O335       Co355   2.063       .  S
O336        C344   1.279       .  A
O336       Co356   1.990       .  S
O337        C345   1.266       .  A
O337       Co357   2.001       .  S
O338        C344   1.276       .  A
O338       Co355   1.988   1_455  S
O339        C345   1.262       .  A
O339       Co354   2.008   1_655  S
O340        C343   1.279       .  A
O340       Co357   1.942       .  S
O341        C342   1.284       .  A
O341       Co356   2.005       .  S
C342       C2618   1.489       .  S
C343       C1097   1.490       .  S
C344       C1498   1.473       .  S
C345       C2226   1.495       .  S
O346        C359   1.280       .  A
O346       Co354   1.881   1_655  S
O347        C360   1.258       .  A
O347       Co355   1.972   1_455  S
O348        C361   1.272       .  A
O348       Co356   1.994       .  S
O349        C362   1.289       .  A
O349       Co357   2.068       .  S
O350        C362   1.276       .  A
O350       Co355   1.919       .  S
O351        C361   1.276       .  A
O351       Co354   1.992       .  S
O352        C359   1.307       .  A
O352       Co357   2.097       .  S
O353        C360   1.266       .  A
O353       Co356   2.014       .  S
Co354       O358   1.881       .  S
Co355       O358   1.959   1_655  S
Co356       O358   2.022       .  S
Co357       O358   2.030   1_655  S
C359        C481   1.469       .  S
C360        C761   1.481       .  S
C361       C1078   1.480       .  S
C362        C453   1.486       .  S
O363        C371   1.267       .  A
O363       Co383   1.912       .  S
O364        C372   1.262       .  A
O364       Co384   1.977   1_565  S
O365        C373   1.265       .  A
O365       Co385   2.013       .  S
O366        C374   1.274       .  A
O366       Co386   2.007       .  S
O367        C373   1.258       .  A
O367       Co384   1.966       .  S
O368        C374   1.270       .  A
O368       Co383   1.971   1_565  S
O369        C372   1.269       .  A
O369       Co386   2.003       .  S
O370        C371   1.291       .  A
O370       Co385   2.106       .  S
C371        C966   1.489       .  S
C372        C425   1.480       .  S
C373        C518   1.479       .  S
C374        C490   1.466       .  S
O375        C388   1.267       .  A
O375       Co383   1.974   1_565  S
O376        C389   1.281       .  A
O376       Co384   2.018       .  S
O377        C390   1.272       .  A
O377       Co385   1.914       .  S
O378        C391   1.280       .  A
O378       Co386   2.000       .  S
O379        C391   1.274       .  A
O379       Co384   2.009   1_565  S
O380        C390   1.293       .  A
O380       Co383   2.094       .  S
O381        C388   1.274       .  A
O381       Co386   2.005       .  S
O382        C389   1.275       .  A
O382       Co385   1.985       .  S
Co383       O387   1.994   1_545  S
Co384       O387   2.001   1_545  S
Co385       O387   2.026   1_545  S
Co386       O387   2.058       .  S
C388       C2254   1.486       .  S
C389       C1918   1.477       .  S
C390       C2366   1.491       .  S
C391       C1657   1.491       .  S
O392        C400   1.262       .  A
O392       Co412   1.885   1_554  S
O393        C401   1.258       .  A
O393       Co413   1.959   1_556  S
O394        C402   1.268       .  A
O394       Co414   2.015       .  S
O395        C403   1.277       .  A
O395       Co415   2.008       .  S
O396        C402   1.259       .  A
O396       Co413   1.963       .  S
O397        C403   1.272       .  A
O397       Co412   1.976       .  S
O398        C401   1.272       .  A
O398       Co415   2.029       .  S
O399        C400   1.295       .  A
O399       Co414   2.118       .  S
C400        C565   1.481       .  S
C401        C462   1.472       .  S
C402        C845   1.478       .  S
C403        C434   1.473       .  S
O404        C417   1.260       .  A
O404       Co412   1.968       .  S
O405        C418   1.274       .  A
O405       Co413   1.997       .  S
O406        C419   1.271       .  A
O406       Co414   1.877       .  S
O407        C420   1.273       .  A
O407       Co415   1.972       .  S
O408        C420   1.276       .  A
O408       Co413   2.004   1_556  S
O409        C419   1.304       .  A
O409       Co412   2.134   1_554  S
O410        C417   1.269       .  A
O410       Co415   2.006       .  S
O411        C418   1.273       .  A
O411       Co414   1.995       .  S
Co412       O416   1.969       .  S
Co413       O416   1.988   1_554  S
Co414       O416   1.998   1_554  S
Co415       O416   2.042       .  S
C417       C1685   1.483       .  S
C418       C1246   1.478       .  S
C419       C1797   1.486       .  S
C420       C1125   1.471       .  S
C421        C422   1.402       .  A
C421        C426   1.402       .  A
C421        H431   1.084       .  S
C422        C423   1.409       .  A
C422        C427   1.476       .  S
C423        C424   1.394       .  A
C423        N428   1.430       .  S
C424        C425   1.404       .  A
C424        H429   1.084       .  S
C425        C426   1.414       .  A
C426        N430   1.428       .  S
C427        C432   1.407       .  A
C427        C436   1.401       .  A
N428        O443   1.262       .  A
N428        O444   1.262       .  A
N430        O441   1.262       .  A
N430        O442   1.262       .  A
C432        C433   1.397       .  A
C432        N437   1.429       .  S
C433        C434   1.404       .  A
C433        H438   1.084       .  S
C434        C435   1.409       .  A
C435        C436   1.398       .  A
C435        N439   1.426       .  S
C436        H440   1.084       .  S
N437        O447   1.262       .  A
N437        O448   1.262       .  A
N439        O445   1.262       .  A
N439        O446   1.260       .  A
C449        C450   1.397       .  A
C449        C454   1.395       .  A
C449        H459   1.083       .  S
C450        C451   1.412       .  A
C450        C455   1.483       .  S
C451        C452   1.403       .  A
C451        N456   1.429       .  S
C452        C453   1.404       .  A
C452        H457   1.083       .  S
C453        C454   1.421       .  A
C454        N458   1.429       .  S
C455        C460   1.413       .  A
C455        C464   1.403       .  A
N456        O471   1.261       .  A
N456        O472   1.262       .  A
N458        O469   1.261       .  A
N458        O470   1.262       .  A
C460        C461   1.401       .  A
C460        N465   1.429       .  S
C461        C462   1.403       .  A
C461        H466   1.084       .  S
C462        C463   1.409       .  A
C463        C464   1.396       .  A
C463        N467   1.428       .  S
C464        H468   1.083       .  S
N465        O475   1.262       .  A
N465        O476   1.262       .  A
N467        O473   1.262       .  A
N467        O474   1.261       .  A
C477        C478   1.400       .  A
C477        C482   1.395       .  A
C477        H487   1.084       .  S
C478        C479   1.412       .  A
C478        C483   1.478       .  S
C479        C480   1.394       .  A
C479        N484   1.426       .  S
C480        C481   1.398       .  A
C480        H485   1.084       .  S
C481        C482   1.409       .  A
C482        N486   1.424       .  S
C483        C488   1.411       .  A
C483        C492   1.404       .  A
N484        O499   1.260       .  A
N484        O500   1.261       .  A
N486        O497   1.262       .  A
N486        O498   1.262       .  A
C488        C489   1.398       .  A
C488        N493   1.431       .  S
C489        C490   1.401       .  A
C489        H494   1.083       .  S
C490        C491   1.407       .  A
C491        C492   1.396       .  A
C491        N495   1.428       .  S
C492        H496   1.084       .  S
N493        O503   1.262       .  A
N493        O504   1.262       .  A
N495        O501   1.262       .  A
N495        O502   1.262       .  A
C505        C506   1.403       .  A
C505        C510   1.401       .  A
C505        H515   1.084       .  S
C506        C507   1.405       .  A
C506        C511   1.472       .  S
C507        C508   1.393       .  A
C507        N512   1.429       .  S
C508        C509   1.404       .  A
C508        H513   1.083       .  S
C509        C510   1.411       .  A
C510        N514   1.429       .  S
C511        C516   1.403       .  A
C511        C520   1.402       .  A
N512        O527   1.262       .  A
N512        O528   1.262       .  A
N514        O525   1.262       .  A
N514        O526   1.262       .  A
C516        C517   1.395       .  A
C516        N521   1.429       .  S
C517        C518   1.409       .  A
C517        H522   1.084       .  S
C518        C519   1.412       .  A
C519        C520   1.399       .  A
C519        N523   1.429       .  S
C520        H524   1.084       .  S
N521        O531   1.262       .  A
N521        O532   1.262       .  A
N523        O529   1.262       .  A
N523        O530   1.262       .  A
C533        C534   1.398       .  A
C533        C538   1.400       .  A
C533        H543   1.084       .  S
C534        C535   1.406       .  A
C534        C539   1.477       .  S
C535        C536   1.403       .  A
C535        N540   1.428       .  S
C536        C537   1.408       .  A
C536        H541   1.084       .  S
C537        C538   1.416       .  A
C538        N542   1.430       .  S
C539        C544   1.408       .  A
C539        C548   1.402       .  A
N540        O555   1.262       .  A
N540        O556   1.262       .  A
N542        O553   1.262       .  A
N542        O554   1.261       .  A
C544        C545   1.403       .  A
C544        N549   1.427       .  S
C545        C546   1.402       .  A
C545        H550   1.084       .  S
C546        C547   1.410       .  A
C547        C548   1.399       .  A
C547        N551   1.430       .  S
C548        H552   1.084       .  S
N549        O559   1.262       .  A
N549        O560   1.262       .  A
N551        O557   1.261       .  A
N551        O558   1.262       .  A
C561        C562   1.397       .  A
C561        C566   1.396       .  A
C561        H571   1.084       .  S
C562        C563   1.406       .  A
C562        C567   1.469       .  S
C563        C564   1.395       .  A
C563        N568   1.430       .  S
C564        C565   1.409       .  A
C564        H569   1.083       .  S
C565        C566   1.418       .  A
C566        N570   1.431       .  S
C567        C572   1.407       .  A
C567        C576   1.401       .  A
N568        O583   1.262       .  A
N568        O584   1.262       .  A
N570        O581   1.262       .  A
N570        O582   1.262       .  A
C572        C573   1.397       .  A
C572        N577   1.429       .  S
C573        C574   1.402       .  A
C573        H578   1.084       .  S
C574        C575   1.405       .  A
C575        C576   1.392       .  A
C575        N579   1.427       .  S
C576        H580   1.084       .  S
N577        O587   1.262       .  A
N577        O588   1.262       .  A
N579        O585   1.262       .  A
N579        O586   1.261       .  A
C589        C590   1.401       .  A
C589        C594   1.394       .  A
C589        H599   1.084       .  S
C590        C591   1.409       .  A
C590        C595   1.474       .  S
C591        C592   1.402       .  A
C591        N596   1.429       .  S
C592        C593   1.402       .  A
C592        H597   1.083       .  S
C593        C594   1.407       .  A
C594        N598   1.429       .  S
C595        C600   1.407       .  A
C595        C604   1.397       .  A
N596        O611   1.262       .  A
N596        O612   1.262       .  A
N598        O609   1.261       .  A
N598        O610   1.261       .  A
C600        C601   1.399       .  A
C600        N605   1.429       .  S
C601        C602   1.409       .  A
C601        H606   1.084       .  S
C602        C603   1.416       .  A
C603        C604   1.398       .  A
C603        N607   1.426       .  S
C604        H608   1.084       .  S
N605        O615   1.262       .  A
N605        O616   1.262       .  A
N607        O613   1.261       .  A
N607        O614   1.262       .  A
C617        C618   1.402       .  A
C617        C622   1.402       .  A
C617        H627   1.083       .  S
C618        C619   1.408       .  A
C618        C623   1.484       .  S
C619        C620   1.399       .  A
C619        N624   1.429       .  S
C620        C621   1.407       .  A
C620        H625   1.084       .  S
C621        C622   1.413       .  A
C622        N626   1.426       .  S
C623        C628   1.407       .  A
C623        C632   1.401       .  A
N624        O639   1.262       .  A
N624        O640   1.262       .  A
N626        O637   1.262       .  A
N626        O638   1.260       .  A
C628        C629   1.401       .  A
C628        N633   1.429       .  S
C629        C630   1.410       .  A
C629        H634   1.083       .  S
C630        C631   1.414       .  A
C631        C632   1.399       .  A
C631        N635   1.425       .  S
C632        H636   1.084       .  S
N633        O643   1.262       .  A
N633        O644   1.262       .  A
N635        O641   1.262       .  A
N635        O642   1.261       .  A
C645        C646   1.397       .  A
C645        C650   1.398       .  A
C645        H655   1.084       .  S
C646        C647   1.404       .  A
C646        C651   1.469       .  S
C647        C648   1.396       .  A
C647        N652   1.429       .  S
C648        C649   1.410       .  A
C648        H653   1.084       .  S
C649        C650   1.416       .  A
C650        N654   1.428       .  S
C651        C656   1.402       .  A
C651        C660   1.401       .  A
N652        O667   1.262       .  A
N652        O668   1.262       .  A
N654        O665   1.262       .  A
N654        O666   1.262       .  A
C656        C657   1.391       .  A
C656        N661   1.429       .  S
C657        C658   1.407       .  A
C657        H662   1.081       .  S
C658        C659   1.414       .  A
C659        C660   1.401       .  A
C659        N663   1.427       .  S
C660        H664   1.084       .  S
N661        O671   1.262       .  A
N661        O672   1.261       .  A
N663        O669   1.260       .  A
N663        O670   1.262       .  A
C673        C674   1.402       .  A
C673        C678   1.402       .  A
C673        H683   1.084       .  S
C674        C675   1.411       .  A
C674        C679   1.483       .  S
C675        C676   1.399       .  A
C675        N680   1.430       .  S
C676        C677   1.402       .  A
C676        H681   1.084       .  S
C677        C678   1.414       .  A
C678        N682   1.429       .  S
C679        C684   1.411       .  A
C679        C688   1.405       .  A
N680        O695   1.262       .  A
N680        O696   1.262       .  A
N682        O693   1.262       .  A
N682        O694   1.261       .  A
C684        C685   1.395       .  A
C684        N689   1.431       .  S
C685        C686   1.400       .  A
C685        H690   1.084       .  S
C686        C687   1.410       .  A
C687        C688   1.406       .  A
C687        N691   1.430       .  S
C688        H692   1.084       .  S
N689        O699   1.262       .  A
N689        O700   1.262       .  A
N691        O697   1.262       .  A
N691        O698   1.262       .  A
C701        C702   1.401       .  A
C701        C706   1.405       .  A
C701        H711   1.084       .  S
C702        C703   1.412       .  A
C702        C707   1.493       .  S
C703        C704   1.406       .  A
C703        N708   1.429       .  S
C704        C705   1.408       .  A
C704        H709   1.084       .  S
C705        C706   1.420       .  A
C706        N710   1.429       .  S
C707        C712   1.412       .  A
C707        C716   1.400       .  A
N708        O723   1.262       .  A
N708        O724   1.262       .  A
N710        O721   1.262       .  A
N710        O722   1.262       .  A
C712        C713   1.410       .  A
C712        N717   1.428       .  S
C713        C714   1.408       .  A
C713        H718   1.083       .  S
C714        C715   1.421       .  A
C715        C716   1.401       .  A
C715        N719   1.430       .  S
C716        H720   1.084       .  S
N717        O727   1.262       .  A
N717        O728   1.262       .  A
N719        O725   1.262       .  A
N719        O726   1.262       .  A
C729        C730   1.400       .  A
C729        C734   1.400       .  A
C729        H739   1.084       .  S
C730        C731   1.408       .  A
C730        C735   1.477       .  S
C731        C732   1.396       .  A
C731        N736   1.433       .  S
C732        C733   1.408       .  A
C732        H737   1.083       .  S
C733        C734   1.412       .  A
C734        N738   1.424       .  S
C735        C740   1.411       .  A
C735        C744   1.403       .  A
N736        O751   1.262       .  A
N736        O752   1.262       .  A
N738        O749   1.262       .  A
N738        O750   1.261       .  A
C740        C741   1.394       .  A
C740        N745   1.427       .  S
C741        C742   1.398       .  A
C741        H746   1.085       .  S
C742        C743   1.406       .  A
C743        C744   1.398       .  A
C743        N747   1.429       .  S
C744        H748   1.084       .  S
N745        O755   1.261       .  A
N745        O756   1.262       .  A
N747        O753   1.262       .  A
N747        O754   1.261       .  A
C757        C758   1.401       .  A
C757        C762   1.397       .  A
C757        H767   1.084       .  S
C758        C759   1.404       .  A
C758        C763   1.472       .  S
C759        C760   1.398       .  A
C759        N764   1.429       .  S
C760        C761   1.408       .  A
C760        H765   1.084       .  S
C761        C762   1.413       .  A
C762        N766   1.428       .  S
C763        C768   1.407       .  A
C763        C772   1.396       .  A
N764        O779   1.262       .  A
N764        O780   1.262       .  A
N766        O777   1.261       .  A
N766        O778   1.262       .  A
C768        C769   1.401       .  A
C768        N773   1.428       .  S
C769        C770   1.405       .  A
C769        H774   1.084       .  S
C770        C771   1.420       .  A
C771        C772   1.395       .  A
C771        N775   1.432       .  S
C772        H776   1.085       .  S
N773        O783   1.262       .  A
N773        O784   1.262       .  A
N775        O781   1.261       .  A
N775        O782   1.261       .  A
C785        C786   1.406       .  A
C785        C790   1.403       .  A
C785        H795   1.083       .  S
C786        C787   1.414       .  A
C786        C791   1.493       .  S
C787        C788   1.397       .  A
C787        N792   1.431       .  S
C788        C789   1.403       .  A
C788        H793   1.081       .  S
C789        C790   1.413       .  A
C790        N794   1.429       .  S
C791        C796   1.415       .  A
C791        C800   1.408       .  A
N792        O807   1.262       .  A
N792        O808   1.262       .  A
N794        O805   1.262       .  A
N794        O806   1.262       .  A
C796        C797   1.398       .  A
C796        N801   1.429       .  S
C797        C798   1.400       .  A
C797        H802   1.085       .  S
C798        C799   1.408       .  A
C799        C800   1.401       .  A
C799        N803   1.429       .  S
C800        H804   1.083       .  S
N801        O811   1.262       .  A
N801        O812   1.262       .  A
N803        O809   1.260       .  A
N803        O810   1.262       .  A
C813        C814   1.396       .  A
C813        C818   1.399       .  A
C813        H823   1.084       .  S
C814        C815   1.407       .  A
C814        C819   1.478       .  S
C815        C816   1.402       .  A
C815        N820   1.428       .  S
C816        C817   1.407       .  A
C816        H821   1.083       .  S
C817        C818   1.421       .  A
C818        N822   1.431       .  S
C819        C824   1.405       .  A
C819        C828   1.401       .  A
N820        O835   1.262       .  A
N820        O836   1.262       .  A
N822        O833   1.261       .  A
N822        O834   1.262       .  A
C824        C825   1.398       .  A
C824        N829   1.428       .  S
C825        C826   1.406       .  A
C825        H830   1.082       .  S
C826        C827   1.415       .  A
C827        C828   1.402       .  A
C827        N831   1.427       .  S
C828        H832   1.084       .  S
N829        O839   1.262       .  A
N829        O840   1.262       .  A
N831        O837   1.262       .  A
N831        O838   1.262       .  A
C841        C842   1.403       .  A
C841        C846   1.400       .  A
C841        H851   1.084       .  S
C842        C843   1.403       .  A
C842        C847   1.471       .  S
C843        C844   1.393       .  A
C843        N848   1.429       .  S
C844        C845   1.408       .  A
C844        H849   1.084       .  S
C845        C846   1.413       .  A
C846        N850   1.429       .  S
C847        C852   1.404       .  A
C847        C856   1.404       .  A
N848        O863   1.262       .  A
N848        O864   1.261       .  A
N850        O861   1.262       .  A
N850        O862   1.261       .  A
C852        C853   1.392       .  A
C852        N857   1.430       .  S
C853        C854   1.405       .  A
C853        H858   1.079       .  S
C854        C855   1.409       .  A
C855        C856   1.400       .  A
C855        N859   1.429       .  S
C856        H860   1.084       .  S
N857        O867   1.262       .  A
N857        O868   1.262       .  A
N859        O865   1.262       .  A
N859        O866   1.262       .  A
C869        C870   1.406       .  A
C869        C874   1.410       .  A
C869        H879   1.083       .  S
C870        C871   1.410       .  A
C870        C875   1.486       .  S
C871        C872   1.391       .  A
C871        N876   1.429       .  S
C872        C873   1.403       .  A
C872        H877   1.084       .  S
C873        C874   1.415       .  A
C874        N878   1.429       .  S
C875        C880   1.410       .  A
C875        C884   1.398       .  A
N876        O891   1.262       .  A
N876        O892   1.262       .  A
N878        O889   1.262       .  A
N878        O890   1.261       .  A
C880        C881   1.408       .  A
C880        N885   1.428       .  S
C881        C882   1.407       .  A
C881        H886   1.084       .  S
C882        C883   1.415       .  A
C883        C884   1.397       .  A
C883        N887   1.429       .  S
C884        H888   1.084       .  S
N885        O895   1.262       .  A
N885        O896   1.262       .  A
N887        O893   1.261       .  A
N887        O894   1.262       .  A
C897        C898   1.399       .  A
C897        C902   1.397       .  A
C897        H907   1.084       .  S
C898        C899   1.407       .  A
C898        C903   1.462       .  S
C899        C900   1.388       .  A
C899        N904   1.431       .  S
C900        C901   1.400       .  A
C900        H905   1.085       .  S
C901        C902   1.411       .  A
C902        N906   1.430       .  S
C903        C908   1.406       .  A
C903        C912   1.397       .  A
N904        O919   1.262       .  A
N904        O920   1.262       .  A
N906        O917   1.262       .  A
N906        O918   1.262       .  A
C908        C909   1.391       .  A
C908        N913   1.430       .  S
C909        C910   1.403       .  A
C909        H914   1.084       .  S
C910        C911   1.412       .  A
C911        C912   1.391       .  A
C911        N915   1.427       .  S
C912        H916   1.084       .  S
N913        O923   1.262       .  A
N913        O924   1.262       .  A
N915        O921   1.262       .  A
N915        O922   1.262       .  A
C925        C926   1.396       .  A
C925        C930   1.397       .  A
C925        H935   1.084       .  S
C926        C927   1.407       .  A
C926        C931   1.471       .  S
C927        C928   1.398       .  A
C927        N932   1.429       .  S
C928        C929   1.404       .  A
C928        H933   1.084       .  S
C929        C930   1.418       .  A
C930        N934   1.429       .  S
C931        C936   1.407       .  A
C931        C940   1.402       .  A
N932        O947   1.262       .  A
N932        O948   1.262       .  A
N934        O945   1.262       .  A
N934        O946   1.262       .  A
C936        C937   1.392       .  A
C936        N941   1.430       .  S
C937        C938   1.400       .  A
C937        H942   1.084       .  S
C938        C939   1.409       .  A
C939        C940   1.403       .  A
C939        N943   1.429       .  S
C940        H944   1.084       .  S
N941        O951   1.262       .  A
N941        O952   1.262       .  A
N943        O949   1.262       .  A
N943        O950   1.262       .  A
C953        C954   1.403       .  A
C953        C958   1.401       .  A
C953        H963   1.084       .  S
C954        C955   1.410       .  A
C954        C959   1.490       .  S
C955        C956   1.403       .  A
C955        N960   1.428       .  S
C956        C957   1.407       .  A
C956        H961   1.084       .  S
C957        C958   1.417       .  A
C958        N962   1.431       .  S
C959        C964   1.409       .  A
C959        C968   1.406       .  A
N960        O975   1.262       .  A
N960        O976   1.262       .  A
N962        O973   1.261       .  A
N962        O974   1.262       .  A
C964        C965   1.400       .  A
C964        N969   1.430       .  S
C965        C966   1.407       .  A
C965        H970   1.084       .  S
C966        C967   1.413       .  A
C967        C968   1.406       .  A
C967        N971   1.429       .  S
C968        H972   1.083       .  S
N969        O979   1.262       .  A
N969        O980   1.262       .  A
N971        O977   1.262       .  A
N971        O978   1.262       .  A
C981        C982   1.396       .  A
C981        C986   1.397       .  A
C981        H991   1.084       .  S
C982        C983   1.407       .  A
C982        C987   1.472       .  S
C983        C984   1.400       .  A
C983        N988   1.428       .  S
C984        C985   1.406       .  A
C984        H989   1.084       .  S
C985        C986   1.415       .  A
C986        N990   1.427       .  S
C987        C992   1.407       .  A
C987        C996   1.397       .  A
N988       O1003   1.262       .  A
N988       O1004   1.262       .  A
N990       O1001   1.262       .  A
N990       O1002   1.261       .  A
C992        C993   1.399       .  A
C992        N997   1.429       .  S
C993        C994   1.404       .  A
C993        H998   1.084       .  S
C994        C995   1.418       .  A
C995        C996   1.399       .  A
C995        N999   1.432       .  S
C996       H1000   1.084       .  S
N997       O1007   1.262       .  A
N997       O1008   1.262       .  A
N999       O1005   1.263       .  A
N999       O1006   1.261       .  A
C1009      C1010   1.399       .  A
C1009      C1014   1.400       .  A
C1009      H1019   1.084       .  S
C1010      C1011   1.407       .  A
C1010      C1015   1.473       .  S
C1011      C1012   1.398       .  A
C1011      N1016   1.428       .  S
C1012      C1013   1.402       .  A
C1012      H1017   1.084       .  S
C1013      C1014   1.412       .  A
C1014      N1018   1.430       .  S
C1015      C1020   1.406       .  A
C1015      C1024   1.398       .  A
N1016      O1031   1.262       .  A
N1016      O1032   1.262       .  A
N1018      O1029   1.261       .  A
N1018      O1030   1.262       .  A
C1020      C1021   1.399       .  A
C1020      N1025   1.428       .  S
C1021      C1022   1.405       .  A
C1021      H1026   1.084       .  S
C1022      C1023   1.413       .  A
C1023      C1024   1.399       .  A
C1023      N1027   1.426       .  S
C1024      H1028   1.084       .  S
N1025      O1035   1.262       .  A
N1025      O1036   1.262       .  A
N1027      O1033   1.261       .  A
N1027      O1034   1.262       .  A
C1037      C1038   1.402       .  A
C1037      C1042   1.398       .  A
C1037      H1047   1.084       .  S
C1038      C1039   1.406       .  A
C1038      C1043   1.470       .  S
C1039      C1040   1.392       .  A
C1039      N1044   1.429       .  S
C1040      C1041   1.403       .  A
C1040      H1045   1.084       .  S
C1041      C1042   1.411       .  A
C1042      N1046   1.429       .  S
C1043      C1048   1.404       .  A
C1043      C1052   1.403       .  A
N1044      O1059   1.262       .  A
N1044      O1060   1.262       .  A
N1046      O1057   1.262       .  A
N1046      O1058   1.261       .  A
C1048      C1049   1.392       .  A
C1048      N1053   1.429       .  S
C1049      C1050   1.405       .  A
C1049      H1054   1.084       .  S
C1050      C1051   1.410       .  A
C1051      C1052   1.398       .  A
C1051      N1055   1.429       .  S
C1052      H1056   1.084       .  S
N1053      O1063   1.262       .  A
N1053      O1064   1.261       .  A
N1055      O1061   1.262       .  A
N1055      O1062   1.262       .  A
C1065      C1066   1.402       .  A
C1065      C1070   1.404       .  A
C1065      H1075   1.084       .  S
C1066      C1067   1.409       .  A
C1066      C1071   1.478       .  S
C1067      C1068   1.396       .  A
C1067      N1072   1.431       .  S
C1068      C1069   1.404       .  A
C1068      H1073   1.084       .  S
C1069      C1070   1.414       .  A
C1070      N1074   1.430       .  S
C1071      C1076   1.407       .  A
C1071      C1080   1.398       .  A
N1072      O1087   1.262       .  A
N1072      O1088   1.262       .  A
N1074      O1085   1.262       .  A
N1074      O1086   1.262       .  A
C1076      C1077   1.400       .  A
C1076      N1081   1.429       .  S
C1077      C1078   1.406       .  A
C1077      H1082   1.084       .  S
C1078      C1079   1.409       .  A
C1079      C1080   1.400       .  A
C1079      N1083   1.421       .  S
C1080      H1084   1.084       .  S
N1081      O1091   1.262       .  A
N1081      O1092   1.262       .  A
N1083      O1089   1.260       .  A
N1083      O1090   1.262       .  A
C1093      C1094   1.409       .  A
C1093      C1098   1.413       .  A
C1093      H1103   1.083       .  S
C1094      C1095   1.414       .  A
C1094      C1099   1.507       .  S
C1095      C1096   1.407       .  A
C1095      N1100   1.427       .  S
C1096      C1097   1.403       .  A
C1096      H1101   1.084       .  S
C1097      C1098   1.412       .  A
C1098      N1102   1.429       .  S
C1099      C1104   1.412       .  A
C1099      C1108   1.407       .  A
N1100      O1115   1.261       .  A
N1100      O1116   1.262       .  A
N1102      O1113   1.262       .  A
N1102      O1114   1.261       .  A
C1104      C1105   1.411       .  A
C1104      N1109   1.428       .  S
C1105      C1106   1.408       .  A
C1105      H1110   1.084       .  S
C1106      C1107   1.418       .  A
C1107      C1108   1.411       .  A
C1107      N1111   1.431       .  S
C1108      H1112   1.083       .  S
N1109      O1119   1.262       .  A
N1109      O1120   1.262       .  A
N1111      O1117   1.259       .  A
N1111      O1118   1.261       .  A
C1121      C1122   1.400       .  A
C1121      C1126   1.393       .  A
C1121      H1131   1.084       .  S
C1122      C1123   1.410       .  A
C1122      C1127   1.479       .  S
C1123      C1124   1.401       .  A
C1123      N1128   1.428       .  S
C1124      C1125   1.404       .  A
C1124      H1129   1.084       .  S
C1125      C1126   1.413       .  A
C1126      N1130   1.431       .  S
C1127      C1132   1.411       .  A
C1127      C1136   1.401       .  A
N1128      O1143   1.262       .  A
N1128      O1144   1.262       .  A
N1130      O1141   1.260   1_556  A
N1130      O1142   1.262       .  A
C1132      C1133   1.393       .  A
C1132      N1137   1.430       .  S
C1133      C1134   1.396       .  A
C1133      H1138   1.056       .  S
C1134      C1135   1.414       .  A
C1135      C1136   1.402       .  A
C1135      N1139   1.430       .  S
C1136      H1140   1.081       .  S
N1137      O1147   1.262       .  A
N1137      O1148   1.261       .  A
N1139      O1145   1.262       .  A
N1139      O1146   1.262       .  A
C1149      C1150   1.398       .  A
C1149      C1154   1.402       .  A
C1149      H1159   1.090       .  S
C1150      C1151   1.408       .  A
C1150      C1155   1.473       .  S
C1151      C1152   1.387       .  A
C1151      N1156   1.428       .  S
C1152      C1153   1.394       .  A
C1152      H1157   1.126       .  S
C1153      C1154   1.421       .  A
C1154      N1158   1.431       .  S
C1155      C1160   1.406       .  A
C1155      C1164   1.396       .  A
N1156      O1171   1.262       .  A
N1156      O1172   1.261       .  A
N1158      O1169   1.262       .  A
N1158      O1170   1.262       .  A
C1160      C1161   1.404       .  A
C1160      N1165   1.428       .  S
C1161      C1162   1.408       .  A
C1161      H1166   1.084       .  S
C1162      C1163   1.409       .  A
C1163      C1164   1.395       .  A
C1163      N1167   1.425   1_655  S
C1164      H1168   1.085       .  S
N1165      O1175   1.261       .  A
N1165      O1176   1.262       .  A
N1167      O1173   1.260       .  A
N1167      O1174   1.262       .  A
C1177      C1178   1.414       .  A
C1177      C1182   1.424       .  A
C1177      H1187   1.083       .  S
C1178      C1179   1.406       .  A
C1178      C1183   1.507       .  S
C1179      C1180   1.399       .  A
C1179      N1184   1.427       .  S
C1180      C1181   1.410       .  A
C1180      H1185   1.085       .  S
C1181      C1182   1.415       .  A
C1182      N1186   1.427       .  S
C1183      C1188   1.411       .  A
C1183      C1192   1.407       .  A
N1184      O1199   1.262       .  A
N1184      O1200   1.261       .  A
N1186      O1197   1.262       .  A
N1186      O1198   1.262       .  A
C1188      C1189   1.413       .  A
C1188      N1193   1.428       .  S
C1189      C1190   1.409       .  A
C1189      H1194   1.084       .  S
C1190      C1191   1.419       .  A
C1191      C1192   1.410       .  A
C1191      N1195   1.432       .  S
C1192      H1196   1.084       .  S
N1193      O1203   1.262       .  A
N1193      O1204   1.262       .  A
N1195      O1201   1.260       .  A
N1195      O1202   1.261       .  A
C1205      C1206   1.400       .  A
C1205      C1210   1.403       .  A
C1205      H1215   1.080       .  S
C1206      C1207   1.404       .  A
C1206      C1211   1.474       .  S
C1207      C1208   1.398       .  A
C1207      N1212   1.428       .  S
C1208      C1209   1.402       .  A
C1208      H1213   1.039       .  S
C1209      C1210   1.411       .  A
C1210      N1214   1.429       .  S
C1211      C1216   1.405       .  A
C1211      C1220   1.398       .  A
N1212      O1227   1.262       .  A
N1212      O1228   1.261       .  A
N1214      O1225   1.261       .  A
N1214      O1226   1.261       .  A
C1216      C1217   1.401       .  A
C1216      N1221   1.427       .  S
C1217      C1218   1.406       .  A
C1217      H1222   1.084       .  S
C1218      C1219   1.411       .  A
C1219      C1220   1.398       .  A
C1219      N1223   1.426       .  S
C1220      H1224   1.084       .  S
N1221      O1231   1.262       .  A
N1221      O1232   1.261       .  A
N1223      O1229   1.262       .  A
N1223      O1230   1.262       .  A
C1233      C1234   1.401       .  A
C1233      C1238   1.403       .  A
C1233      H1243   1.083       .  S
C1234      C1235   1.404       .  A
C1234      C1239   1.481       .  S
C1235      C1236   1.404       .  A
C1235      N1240   1.428       .  S
C1236      C1237   1.408       .  A
C1236      H1241   1.083       .  S
C1237      C1238   1.419       .  A
C1238      N1242   1.432       .  S
C1239      C1244   1.402       .  A
C1239      C1248   1.408       .  A
N1240      O1255   1.262       .  A
N1240      O1256   1.262       .  A
N1242      O1253   1.260       .  A
N1242      O1254   1.261       .  A
C1244      C1245   1.390       .  A
C1244      N1249   1.426       .  S
C1245      C1246   1.403       .  A
C1245      H1250   1.084       .  S
C1246      C1247   1.411       .  A
C1247      C1248   1.412       .  A
C1247      N1251   1.428       .  S
C1248      H1252   1.083       .  S
N1249      O1259   1.262       .  A
N1249      O1260   1.260       .  A
N1251      O1257   1.261       .  A
N1251      O1258   1.262       .  A
C1261      C1262   1.404       .  A
C1261      C1266   1.408       .  A
C1261      H1271   1.084       .  S
C1262      C1263   1.416       .  A
C1262      C1267   1.501       .  S
C1263      C1264   1.409       .  A
C1263      N1268   1.428       .  S
C1264      C1265   1.405       .  A
C1264      H1269   1.084       .  S
C1265      C1266   1.414       .  A
C1266      N1270   1.428       .  S
C1267      C1272   1.413       .  A
C1267      C1276   1.406       .  A
N1268      O1283   1.262       .  A
N1268      O1284   1.261       .  A
N1270      O1281   1.261       .  A
N1270      O1282   1.262       .  A
C1272      C1273   1.406       .  A
C1272      N1277   1.429       .  S
C1273      C1274   1.408       .  A
C1273      H1278   1.084       .  S
C1274      C1275   1.418       .  A
C1275      C1276   1.410       .  A
C1275      N1279   1.428       .  S
C1276      H1280   1.084       .  S
N1277      O1287   1.262       .  A
N1277      O1288   1.261       .  A
N1279      O1285   1.262       .  A
N1279      O1286   1.262       .  A
C1289      C1290   1.401       .  A
C1289      C1294   1.395       .  A
C1289      H1299   1.083       .  S
C1290      C1291   1.414       .  A
C1290      C1295   1.486       .  S
C1291      C1292   1.399       .  A
C1291      N1296   1.429       .  S
C1292      C1293   1.401       .  A
C1292      H1297   1.084       .  S
C1293      C1294   1.416       .  A
C1294      N1298   1.433       .  S
C1295      C1300   1.418       .  A
C1295      C1304   1.403       .  A
N1296      O1311   1.262       .  A
N1296      O1312   1.262       .  A
N1298      O1309   1.262       .  A
N1298      O1310   1.261   1_554  A
C1300      C1301   1.395       .  A
C1300      N1305   1.431       .  S
C1301      C1302   1.397       .  A
C1301      H1306   1.083       .  S
C1302      C1303   1.410       .  A
C1303      C1304   1.397       .  A
C1303      N1307   1.434       .  S
C1304      H1308   1.082       .  S
N1305      O1315   1.262       .  A
N1305      O1316   1.262       .  A
N1307      O1313   1.261       .  A
N1307      O1314   1.262       .  A
C1317      C1318   1.398       .  A
C1317      C1322   1.399       .  A
C1317      H1327   1.083       .  S
C1318      C1319   1.415       .  A
C1318      C1323   1.501   1_556  S
C1319      C1320   1.412       .  A
C1319      N1324   1.428       .  S
C1320      C1321   1.411       .  A
C1320      H1325   1.081       .  S
C1321      C1322   1.421       .  A
C1322      N1326   1.428       .  S
C1323      C1328   1.416       .  A
C1323      C1332   1.404       .  A
N1324      O1339   1.262       .  A
N1324      O1340   1.262       .  A
N1326      O1337   1.259       .  A
N1326      O1338   1.261       .  A
C1328      C1329   1.401       .  A
C1328      N1333   1.430       .  S
C1329      C1330   1.405       .  A
C1329      H1334   1.084       .  S
C1330      C1331   1.422       .  A
C1331      C1332   1.411       .  A
C1331      N1335   1.426       .  S
C1332      H1336   1.083       .  S
N1333      O1343   1.262       .  A
N1333      O1344   1.261       .  A
N1335      O1341   1.260       .  A
N1335      O1342   1.262       .  A
C1345      C1346   1.399       .  A
C1345      C1350   1.399       .  A
C1345      H1355   1.085       .  S
C1346      C1347   1.407       .  A
C1346      C1351   1.489       .  S
C1347      C1348   1.408       .  A
C1347      N1352   1.427       .  S
C1348      C1349   1.409       .  A
C1348      H1353   1.084       .  S
C1349      C1350   1.413       .  A
C1350      N1354   1.423       .  S
C1351      C1356   1.405       .  A
C1351      C1360   1.406       .  A
N1352      O1367   1.262       .  A
N1352      O1368   1.262       .  A
N1354      O1365   1.258       .  A
N1354      O1366   1.259       .  A
C1356      C1357   1.398       .  A
C1356      N1361   1.432       .  S
C1357      C1358   1.409       .  A
C1357      H1362   1.084       .  S
C1358      C1359   1.418       .  A
C1359      C1360   1.416       .  A
C1359      N1363   1.431       .  S
C1360      H1364   1.083       .  S
N1361      O1371   1.262       .  A
N1361      O1372   1.262       .  A
N1363      O1369   1.262       .  A
N1363      O1370   1.262       .  A
C1373      C1374   1.401       .  A
C1373      C1378   1.402       .  A
C1373      H1383   1.084       .  S
C1374      C1375   1.407       .  A
C1374      C1379   1.482       .  S
C1375      C1376   1.403       .  A
C1375      N1380   1.428       .  S
C1376      C1377   1.406       .  A
C1376      H1381   1.083       .  S
C1377      C1378   1.415       .  A
C1378      N1382   1.430       .  S
C1379      C1384   1.413       .  A
C1379      C1388   1.398       .  A
N1380      O1395   1.262       .  A
N1380      O1396   1.261       .  A
N1382      O1393   1.260       .  A
N1382      O1394   1.258       .  A
C1384      C1385   1.407       .  A
C1384      N1389   1.427       .  S
C1385      C1386   1.401       .  A
C1385      H1390   1.084       .  S
C1386      C1387   1.415       .  A
C1387      C1388   1.398       .  A
C1387      N1391   1.430       .  S
C1388      H1392   1.084       .  S
N1389      O1399   1.262       .  A
N1389      O1400   1.261       .  A
N1391      O1397   1.262       .  A
N1391      O1398   1.261       .  A
C1401      C1402   1.404       .  A
C1401      C1406   1.409       .  A
C1401      H1411   1.084       .  S
C1402      C1403   1.407       .  A
C1402      C1407   1.484       .  S
C1403      C1404   1.400       .  A
C1403      N1408   1.430       .  S
C1404      C1405   1.410       .  A
C1404      H1409   1.084       .  S
C1405      C1406   1.415       .  A
C1406      N1410   1.433       .  S
C1407      C1412   1.405       .  A
C1407      C1416   1.400       .  A
N1408      O1423   1.262       .  A
N1408      O1424   1.262       .  A
N1410      O1421   1.262       .  A
N1410      O1422   1.263       .  A
C1412      C1413   1.407       .  A
C1412      N1417   1.428       .  S
C1413      C1414   1.409       .  A
C1413      H1418   1.084       .  S
C1414      C1415   1.412       .  A
C1415      C1416   1.402       .  A
C1415      N1419   1.426       .  S
C1416      H1420   1.082       .  S
N1417      O1427   1.262       .  A
N1417      O1428   1.262       .  A
N1419      O1425   1.262       .  A
N1419      O1426   1.260       .  A
C1429      C1430   1.402       .  A
C1429      C1434   1.407       .  A
C1429      H1439   1.084       .  S
C1430      C1431   1.406       .  A
C1430      C1435   1.482       .  S
C1431      C1432   1.397       .  A
C1431      N1436   1.429       .  S
C1432      C1433   1.401       .  A
C1432      H1437   1.079       .  S
C1433      C1434   1.415       .  A
C1434      N1438   1.431       .  S
C1435      C1440   1.409       .  A
C1435      C1444   1.396       .  A
N1436      O1451   1.262       .  A
N1436      O1452   1.261       .  A
N1438      O1449   1.261       .  A
N1438      O1450   1.261       .  A
C1440      C1441   1.408       .  A
C1440      N1445   1.429       .  S
C1441      C1442   1.407       .  A
C1441      H1446   1.083       .  S
C1442      C1443   1.416       .  A
C1443      C1444   1.400       .  A
C1443      N1447   1.428       .  S
C1444      H1448   1.084       .  S
N1445      O1455   1.262       .  A
N1445      O1456   1.261       .  A
N1447      O1453   1.262       .  A
N1447      O1454   1.261       .  A
C1457      C1458   1.409       .  A
C1457      C1462   1.403       .  A
C1457      H1467   1.082       .  S
C1458      C1459   1.423       .  A
C1458      C1463   1.510   1_455  S
C1459      C1460   1.410       .  A
C1459      N1464   1.428       .  S
C1460      C1461   1.400       .  A
C1460      H1465   1.084       .  S
C1461      C1462   1.411       .  A
C1462      N1466   1.433       .  S
C1463      C1468   1.419       .  A
C1463      C1472   1.409       .  A
N1464      O1479   1.262       .  A
N1464      O1480   1.262       .  A
N1466      O1477   1.262       .  A
N1466      O1478   1.261       .  A
C1468      C1469   1.398       .  A
C1468      N1473   1.429       .  S
C1469      C1470   1.403       .  A
C1469      H1474   1.083       .  S
C1470      C1471   1.414       .  A
C1471      C1472   1.411       .  A
C1471      N1475   1.427       .  S
C1472      H1476   1.081       .  S
N1473      O1483   1.262       .  A
N1473      O1484   1.262       .  A
N1475      O1481   1.260       .  A
N1475      O1482   1.261       .  A
C1485      C1486   1.400       .  A
C1485      C1490   1.399       .  A
C1485      H1495   1.083       .  S
C1486      C1487   1.416       .  A
C1486      C1491   1.487       .  S
C1487      C1488   1.398       .  A
C1487      N1492   1.430       .  S
C1488      C1489   1.399       .  A
C1488      H1493   1.082       .  S
C1489      C1490   1.411       .  A
C1490      N1494   1.428       .  S
C1491      C1496   1.414       .  A
C1491      C1500   1.403       .  A
N1492      O1507   1.262       .  A
N1492      O1508   1.262       .  A
N1494      O1505   1.261       .  A
N1494      O1506   1.259       .  A
C1496      C1497   1.403       .  A
C1496      N1501   1.429       .  S
C1497      C1498   1.404       .  A
C1497      H1502   1.084       .  S
C1498      C1499   1.411       .  A
C1499      C1500   1.396       .  A
C1499      N1503   1.430       .  S
C1500      H1504   1.084       .  S
N1501      O1511   1.262       .  A
N1501      O1512   1.261       .  A
N1503      O1509   1.261   1_455  A
N1503      O1510   1.262   1_455  A
C1513      C1514   1.403       .  A
C1513      C1518   1.409       .  A
C1513      H1523   1.084       .  S
C1514      C1515   1.410       .  A
C1514      C1519   1.494       .  S
C1515      C1516   1.407       .  A
C1515      N1520   1.429       .  S
C1516      C1517   1.408       .  A
C1516      H1521   1.081       .  S
C1517      C1518   1.415       .  A
C1518      N1522   1.429       .  S
C1519      C1524   1.410       .  A
C1519      C1528   1.402       .  A
N1520      O1535   1.262       .  A
N1520      O1536   1.261       .  A
N1522      O1533   1.260       .  A
N1522      O1534   1.260       .  A
C1524      C1525   1.406       .  A
C1524      N1529   1.429       .  S
C1525      C1526   1.410       .  A
C1525      H1530   1.084       .  S
C1526      C1527   1.419       .  A
C1527      C1528   1.408       .  A
C1527      N1531   1.428       .  S
C1528      H1532   1.084       .  S
N1529      O1539   1.262       .  A
N1529      O1540   1.262       .  A
N1531      O1537   1.262       .  A
N1531      O1538   1.262       .  A
C1541      C1542   1.402       .  A
C1541      C1546   1.410       .  A
C1541      H1551   1.084       .  S
C1542      C1543   1.412       .  A
C1542      C1547   1.493       .  S
C1543      C1544   1.405       .  A
C1543      N1548   1.428       .  S
C1544      C1545   1.405       .  A
C1544      H1549   1.083       .  S
C1545      C1546   1.417       .  A
C1546      N1550   1.428       .  S
C1547      C1552   1.416       .  A
C1547      C1556   1.393       .  A
N1548      O1563   1.262       .  A
N1548      O1564   1.262       .  A
N1550      O1561   1.260       .  A
N1550      O1562   1.261       .  A
C1552      C1553   1.419       .  A
C1552      N1557   1.428       .  S
C1553      C1554   1.408       .  A
C1553      H1558   1.083       .  S
C1554      C1555   1.421       .  A
C1555      C1556   1.396       .  A
C1555      N1559   1.428       .  S
C1556      H1560   1.085       .  S
N1557      O1567   1.262       .  A
N1557      O1568   1.262       .  A
N1559      O1565   1.261       .  A
N1559      O1566   1.262       .  A
C1569      C1570   1.405       .  A
C1569      C1574   1.405       .  A
C1569      H1579   1.084       .  S
C1570      C1571   1.408       .  A
C1570      C1575   1.490       .  S
C1571      C1572   1.406       .  A
C1571      N1576   1.431       .  S
C1572      C1573   1.407       .  A
C1572      H1577   1.084       .  S
C1573      C1574   1.411       .  A
C1574      N1578   1.429       .  S
C1575      C1580   1.410       .  A
C1575      C1584   1.404       .  A
N1576      O1591   1.261       .  A
N1576      O1592   1.262       .  A
N1578      O1589   1.262       .  A
N1578      O1590   1.261       .  A
C1580      C1581   1.401       .  A
C1580      N1585   1.427       .  S
C1581      C1582   1.401       .  A
C1581      H1586   1.083       .  S
C1582      C1583   1.413       .  A
C1583      C1584   1.407       .  A
C1583      N1587   1.429       .  S
C1584      H1588   1.084       .  S
N1585      O1595   1.261       .  A
N1585      O1596   1.261       .  A
N1587      O1593   1.262       .  A
N1587      O1594   1.262       .  A
C1597      C1598   1.398       .  A
C1597      C1602   1.408       .  A
C1597      H1607   1.084       .  S
C1598      C1599   1.410       .  A
C1598      C1603   1.491   1_556  S
C1599      C1600   1.398       .  A
C1599      N1604   1.430       .  S
C1600      C1601   1.406       .  A
C1600      H1605   1.084       .  S
C1601      C1602   1.420       .  A
C1602      N1606   1.424       .  S
C1603      C1608   1.406       .  A
C1603      C1612   1.405       .  A
N1604      O1619   1.262       .  A
N1604      O1620   1.262       .  A
N1606      O1617   1.260       .  A
N1606      O1618   1.260       .  A
C1608      C1609   1.400       .  A
C1608      N1613   1.432       .  S
C1609      C1610   1.407       .  A
C1609      H1614   1.083       .  S
C1610      C1611   1.417       .  A
C1611      C1612   1.412       .  A
C1611      N1615   1.427       .  S
C1612      H1616   1.084       .  S
N1613      O1623   1.263   1_554  A
N1613      O1624   1.261       .  A
N1615      O1621   1.260       .  A
N1615      O1622   1.260       .  A
C1625      C1626   1.407       .  A
C1625      C1630   1.415       .  A
C1625      H1635   1.082       .  S
C1626      C1627   1.417       .  A
C1626      C1631   1.507   1_455  S
C1627      C1628   1.401       .  A
C1627      N1632   1.430       .  S
C1628      C1629   1.403       .  A
C1628      H1633   1.084       .  S
C1629      C1630   1.417       .  A
C1630      N1634   1.426       .  S
C1631      C1636   1.416       .  A
C1631      C1640   1.397       .  A
N1632      O1647   1.262       .  A
N1632      O1648   1.261       .  A
N1634      O1645   1.262       .  A
N1634      O1646   1.261       .  A
C1636      C1637   1.418       .  A
C1636      N1641   1.428       .  S
C1637      C1638   1.413       .  A
C1637      H1642   1.082       .  S
C1638      C1639   1.423       .  A
C1639      C1640   1.400       .  A
C1639      N1643   1.428       .  S
C1640      H1644   1.084       .  S
N1641      O1651   1.262       .  A
N1641      O1652   1.262       .  A
N1643      O1649   1.262       .  A
N1643      O1650   1.258       .  A
C1653      C1654   1.408       .  A
C1653      C1658   1.407       .  A
C1653      H1663   1.082       .  S
C1654      C1655   1.421       .  A
C1654      C1659   1.513       .  S
C1655      C1656   1.410       .  A
C1655      N1660   1.429       .  S
C1656      C1657   1.403       .  A
C1656      H1661   1.084       .  S
C1657      C1658   1.416       .  A
C1658      N1662   1.432       .  S
C1659      C1664   1.421       .  A
C1659      C1668   1.405       .  A
N1660      O1675   1.262       .  A
N1660      O1676   1.262       .  A
N1662      O1673   1.262       .  A
N1662      O1674   1.262   1_565  A
C1664      C1665   1.409       .  A
C1664      N1669   1.429       .  S
C1665      C1666   1.402       .  A
C1665      H1670   1.084       .  S
C1666      C1667   1.416       .  A
C1667      C1668   1.406       .  A
C1667      N1671   1.431       .  S
C1668      H1672   1.081       .  S
N1669      O1679   1.262       .  A
N1669      O1680   1.262       .  A
N1671      O1677   1.258       .  A
N1671      O1678   1.262       .  A
C1681      C1682   1.393       .  A
C1681      C1686   1.388       .  A
C1681      H1691   1.085       .  S
C1682      C1683   1.413       .  A
C1682      C1687   1.479       .  S
C1683      C1684   1.409       .  A
C1683      N1688   1.428       .  S
C1684      C1685   1.405       .  A
C1684      H1689   1.083       .  S
C1685      C1686   1.418       .  A
C1686      N1690   1.430       .  S
C1687      C1692   1.412       .  A
C1687      C1696   1.400       .  A
N1688      O1703   1.262       .  A
N1688      O1704   1.262       .  A
N1690      O1701   1.262       .  A
N1690      O1702   1.262       .  A
C1692      C1693   1.396       .  A
C1692      N1697   1.429       .  S
C1693      C1694   1.400       .  A
C1693      H1698   1.084       .  S
C1694      C1695   1.414       .  A
C1695      C1696   1.402       .  A
C1695      N1699   1.431       .  S
C1696      H1700   1.084       .  S
N1697      O1707   1.262       .  A
N1697      O1708   1.262       .  A
N1699      O1705   1.261       .  A
N1699      O1706   1.261       .  A
C1709      C1710   1.400       .  A
C1709      C1714   1.400       .  A
C1709      H1719   1.084       .  S
C1710      C1711   1.405       .  A
C1710      C1715   1.464       .  S
C1711      C1712   1.388       .  A
C1711      N1716   1.428       .  S
C1712      C1713   1.397       .  A
C1712      H1717   1.080       .  S
C1713      C1714   1.412       .  A
C1714      N1718   1.429       .  S
C1715      C1720   1.408       .  A
C1715      C1724   1.392       .  A
N1716      O1731   1.262       .  A
N1716      O1732   1.262       .  A
N1718      O1729   1.261       .  A
N1718      O1730   1.261       .  A
C1720      C1721   1.403       .  A
C1720      N1725   1.428       .  S
C1721      C1722   1.402       .  A
C1721      H1726   1.084       .  S
C1722      C1723   1.412       .  A
C1723      C1724   1.388       .  A
C1723      N1727   1.427       .  S
C1724      H1728   1.085       .  S
N1725      O1735   1.262       .  A
N1725      O1736   1.261       .  A
N1727      O1733   1.262       .  A
N1727      O1734   1.262       .  A
C1737      C1738   1.403       .  A
C1737      C1742   1.411       .  A
C1737      H1747   1.084       .  S
C1738      C1739   1.408       .  A
C1738      C1743   1.501       .  S
C1739      C1740   1.409       .  A
C1739      N1744   1.428       .  S
C1740      C1741   1.409       .  A
C1740      H1745   1.083       .  S
C1741      C1742   1.422       .  A
C1742      N1746   1.429       .  S
C1743      C1748   1.408       .  A
C1743      C1752   1.408       .  A
N1744      O1759   1.262       .  A
N1744      O1760   1.262       .  A
N1746      O1757   1.261       .  A
N1746      O1758   1.262       .  A
C1748      C1749   1.404       .  A
C1748      N1753   1.428       .  S
C1749      C1750   1.410       .  A
C1749      H1754   1.082       .  S
C1750      C1751   1.418       .  A
C1751      C1752   1.416       .  A
C1751      N1755   1.429       .  S
C1752      H1756   1.083       .  S
N1753      O1763   1.262       .  A
N1753      O1764   1.262       .  A
N1755      O1761   1.262       .  A
N1755      O1762   1.262       .  A
C1765      C1766   1.405       .  A
C1765      C1770   1.408       .  A
C1765      H1775   1.084       .  S
C1766      C1767   1.413       .  A
C1766      C1771   1.498       .  S
C1767      C1768   1.407       .  A
C1767      N1772   1.431       .  S
C1768      C1769   1.405       .  A
C1768      H1773   1.084       .  S
C1769      C1770   1.416       .  A
C1770      N1774   1.429       .  S
C1771      C1776   1.413       .  A
C1771      C1780   1.407       .  A
N1772      O1787   1.262       .  A
N1772      O1788   1.262       .  A
N1774      O1785   1.262       .  A
N1774      O1786   1.262       .  A
C1776      C1777   1.397       .  A
C1776      N1781   1.425       .  S
C1777      C1778   1.399       .  A
C1777      H1782   1.079       .  S
C1778      C1779   1.414       .  A
C1779      C1780   1.413       .  A
C1779      N1783   1.427       .  S
C1780      H1784   1.083       .  S
N1781      O1791   1.261       .  A
N1781      O1792   1.260       .  A
N1783      O1789   1.262       .  A
N1783      O1790   1.262       .  A
C1793      C1794   1.398       .  A
C1793      C1798   1.399       .  A
C1793      H1803   1.084       .  S
C1794      C1795   1.406       .  A
C1794      C1799   1.476       .  S
C1795      C1796   1.401       .  A
C1795      N1800   1.429       .  S
C1796      C1797   1.408       .  A
C1796      H1801   1.084       .  S
C1797      C1798   1.414       .  A
C1798      N1802   1.426       .  S
C1799      C1804   1.406       .  A
C1799      C1808   1.400       .  A
N1800      O1815   1.262       .  A
N1800      O1816   1.262       .  A
N1802      O1813   1.262   1_554  A
N1802      O1814   1.262       .  A
C1804      C1805   1.397       .  A
C1804      N1809   1.429       .  S
C1805      C1806   1.404       .  A
C1805      H1810   1.080       .  S
C1806      C1807   1.416       .  A
C1807      C1808   1.403       .  A
C1807      N1811   1.431       .  S
C1808      H1812   1.084       .  S
N1809      O1819   1.262       .  A
N1809      O1820   1.262       .  A
N1811      O1817   1.262       .  A
N1811      O1818   1.261       .  A
C1821      C1822   1.404       .  A
C1821      C1826   1.402       .  A
C1821      H1831   1.083       .  S
C1822      C1823   1.413       .  A
C1822      C1827   1.502       .  S
C1823      C1824   1.408       .  A
C1823      N1828   1.428       .  S
C1824      C1825   1.407       .  A
C1824      H1829   1.084       .  S
C1825      C1826   1.414       .  A
C1826      N1830   1.428       .  S
C1827      C1832   1.414       .  A
C1827      C1836   1.408       .  A
N1828      O1843   1.262       .  A
N1828      O1844   1.262       .  A
N1830      O1841   1.259       .  A
N1830      O1842   1.261       .  A
C1832      C1833   1.399       .  A
C1832      N1837   1.431       .  S
C1833      C1834   1.404       .  A
C1833      H1838   1.081       .  S
C1834      C1835   1.417       .  A
C1835      C1836   1.411       .  A
C1835      N1839   1.429       .  S
C1836      H1840   1.082       .  S
N1837      O1847   1.262       .  A
N1837      O1848   1.261       .  A
N1839      O1845   1.262       .  A
N1839      O1846   1.262       .  A
C1849      C1850   1.408       .  A
C1849      C1854   1.411       .  A
C1849      H1859   1.083       .  S
C1850      C1851   1.404       .  A
C1850      C1855   1.482       .  S
C1851      C1852   1.389       .  A
C1851      N1856   1.427       .  S
C1852      C1853   1.401       .  A
C1852      H1857   1.084       .  S
C1853      C1854   1.409       .  A
C1854      N1858   1.428       .  S
C1855      C1860   1.404       .  A
C1855      C1864   1.403       .  A
N1856      O1871   1.261       .  A
N1856      O1872   1.261       .  A
N1858      O1869   1.262       .  A
N1858      O1870   1.261       .  A
C1860      C1861   1.400       .  A
C1860      N1865   1.428       .  S
C1861      C1862   1.407       .  A
C1861      H1866   1.084       .  S
C1862      C1863   1.415       .  A
C1863      C1864   1.403       .  A
C1863      N1867   1.436       .  S
C1864      H1868   1.084       .  S
N1865      O1875   1.262       .  A
N1865      O1876   1.262       .  A
N1867      O1873   1.263       .  A
N1867      O1874   1.261       .  A
C1877      C1878   1.397       .  A
C1877      C1882   1.403       .  A
C1877      H1887   1.084       .  S
C1878      C1879   1.405       .  A
C1878      C1883   1.493   1_554  S
C1879      C1880   1.409       .  A
C1879      N1884   1.427       .  S
C1880      C1881   1.415       .  A
C1880      H1885   1.078       .  S
C1881      C1882   1.423       .  A
C1882      N1886   1.426       .  S
C1883      C1888   1.406       .  A
C1883      C1892   1.404       .  A
N1884      O1899   1.261       .  A
N1884      O1900   1.262       .  A
N1886      O1897   1.260       .  A
N1886      O1898   1.262       .  A
C1888      C1889   1.398       .  A
C1888      N1893   1.430       .  S
C1889      C1890   1.405       .  A
C1889      H1894   1.082       .  S
C1890      C1891   1.420       .  A
C1891      C1892   1.415       .  A
C1891      N1895   1.433       .  S
C1892      H1896   1.083       .  S
N1893      O1903   1.262       .  A
N1893      O1904   1.262       .  A
N1895      O1901   1.260       .  A
N1895      O1902   1.263       .  A
C1905      C1906   1.400       .  A
C1905      C1910   1.398       .  A
C1905      H1915   1.084       .  S
C1906      C1907   1.408       .  A
C1906      C1911   1.494       .  S
C1907      C1908   1.409       .  A
C1907      N1912   1.428       .  S
C1908      C1909   1.411       .  A
C1908      H1913   1.083       .  S
C1909      C1910   1.416       .  A
C1910      N1914   1.425       .  S
C1911      C1916   1.411       .  A
C1911      C1920   1.411       .  A
N1912      O1927   1.262       .  A
N1912      O1928   1.262       .  A
N1914      O1925   1.263       .  A
N1914      O1926   1.260       .  A
C1916      C1917   1.393       .  A
C1916      N1921   1.431       .  S
C1917      C1918   1.400       .  A
C1917      H1922   1.083       .  S
C1918      C1919   1.409       .  A
C1919      C1920   1.413       .  A
C1919      N1923   1.429       .  S
C1920      H1924   1.083       .  S
N1921      O1931   1.262       .  A
N1921      O1932   1.262       .  A
N1923      O1929   1.261       .  A
N1923      O1930   1.262       .  A
C1933      C1934   1.398       .  A
C1933      C1938   1.400       .  A
C1933      H1943   1.083       .  S
C1934      C1935   1.411       .  A
C1934      C1939   1.498       .  S
C1935      C1936   1.410       .  A
C1935      N1940   1.428       .  S
C1936      C1937   1.410       .  A
C1936      H1941   1.084       .  S
C1937      C1938   1.424       .  A
C1938      N1942   1.429       .  S
C1939      C1944   1.415       .  A
C1939      C1948   1.406       .  A
N1940      O1955   1.262       .  A
N1940      O1956   1.262       .  A
N1942      O1953   1.259       .  A
N1942      O1954   1.262       .  A
C1944      C1945   1.400       .  A
C1944      N1949   1.429       .  S
C1945      C1946   1.401       .  A
C1945      H1950   1.084       .  S
C1946      C1947   1.415       .  A
C1947      C1948   1.408       .  A
C1947      N1951   1.430       .  S
C1948      H1952   1.083       .  S
N1949      O1959   1.262       .  A
N1949      O1960   1.261       .  A
N1951      O1957   1.262       .  A
N1951      O1958   1.262       .  A
C1961      C1962   1.407       .  A
C1961      C1966   1.409       .  A
C1961      H1971   1.083       .  S
C1962      C1963   1.412       .  A
C1962      C1967   1.505       .  S
C1963      C1964   1.408       .  A
C1963      N1968   1.428       .  S
C1964      C1965   1.406       .  A
C1964      H1969   1.083       .  S
C1965      C1966   1.418       .  A
C1966      N1970   1.429       .  S
C1967      C1972   1.412       .  A
C1967      C1976   1.409       .  A
N1968      O1983   1.262       .  A
N1968      O1984   1.262       .  A
N1970      O1981   1.258       .  A
N1970      O1982   1.261       .  A
C1972      C1973   1.402       .  A
C1972      N1977   1.427       .  S
C1973      C1974   1.406       .  A
C1973      H1978   1.084       .  S
C1974      C1975   1.416       .  A
C1975      C1976   1.413       .  A
C1975      N1979   1.428       .  S
C1976      H1980   1.083       .  S
N1977      O1987   1.261       .  A
N1977      O1988   1.261       .  A
N1979      O1985   1.262       .  A
N1979      O1986   1.262       .  A
C1989      C1990   1.409       .  A
C1989      C1994   1.408       .  A
C1989      H1999   1.080       .  S
C1990      C1991   1.418       .  A
C1990      C1995   1.505       .  S
C1991      C1992   1.404       .  A
C1991      N1996   1.433       .  S
C1992      C1993   1.398       .  A
C1992      H1997   1.055       .  S
C1993      C1994   1.411       .  A
C1994      N1998   1.430       .  S
C1995      C2000   1.416       .  A
C1995      C2004   1.410       .  A
N1996      O2011   1.262       .  A
N1996      O2012   1.263       .  A
N1998      O2009   1.261       .  A
N1998      O2010   1.262       .  A
C2000      C2001   1.400       .  A
C2000      N2005   1.426       .  S
C2001      C2002   1.398       .  A
C2001      H2006   1.085       .  S
C2002      C2003   1.411       .  A
C2003      C2004   1.409       .  A
C2003      N2007   1.429       .  S
C2004      H2008   1.084       .  S
N2005      O2015   1.261       .  A
N2005      O2016   1.261       .  A
N2007      O2013   1.262       .  A
N2007      O2014   1.262       .  A
C2017      C2018   1.414       .  A
C2017      C2022   1.415       .  A
C2017      H2027   1.083       .  S
C2018      C2019   1.415       .  A
C2018      C2023   1.508   1_545  S
C2019      C2020   1.400       .  A
C2019      N2024   1.434       .  S
C2020      C2021   1.401       .  A
C2020      H2025   1.079       .  S
C2021      C2022   1.413       .  A
C2022      N2026   1.429       .  S
C2023      C2028   1.419       .  A
C2023      C2032   1.408       .  A
N2024      O2039   1.262   1_545  A
N2024      O2040   1.263       .  A
N2026      O2037   1.260       .  A
N2026      O2038   1.261       .  A
C2028      C2029   1.401       .  A
C2028      N2033   1.432       .  S
C2029      C2030   1.402       .  A
C2029      H2034   1.084       .  S
C2030      C2031   1.414       .  A
C2031      C2032   1.411       .  A
C2031      N2035   1.428       .  S
C2032      H2036   1.083       .  S
N2033      O2043   1.261       .  A
N2033      O2044   1.262       .  A
N2035      O2041   1.262       .  A
N2035      O2042   1.262       .  A
C2045      C2046   1.412       .  A
C2045      C2050   1.414       .  A
C2045      H2055   1.082       .  S
C2046      C2047   1.415       .  A
C2046      C2051   1.508       .  S
C2047      C2048   1.400       .  A
C2047      N2052   1.428       .  S
C2048      C2049   1.401       .  A
C2048      H2053   1.085       .  S
C2049      C2050   1.411       .  A
C2050      N2054   1.429       .  S
C2051      C2056   1.413       .  A
C2051      C2060   1.410       .  A
N2052      O2067   1.262       .  A
N2052      O2068   1.261       .  A
N2054      O2065   1.262       .  A
N2054      O2066   1.262       .  A
C2056      C2057   1.408       .  A
C2056      N2061   1.428       .  S
C2057      C2058   1.406       .  A
C2057      H2062   1.084       .  S
C2058      C2059   1.412       .  A
C2059      C2060   1.406       .  A
C2059      N2063   1.428       .  S
C2060      H2064   1.083       .  S
N2061      O2071   1.262       .  A
N2061      O2072   1.261       .  A
N2063      O2069   1.261       .  A
N2063      O2070   1.261       .  A
C2073      C2074   1.399       .  A
C2073      C2078   1.401       .  A
C2073      H2083   1.084       .  S
C2074      C2075   1.409       .  A
C2074      C2079   1.475       .  S
C2075      C2076   1.399       .  A
C2075      N2080   1.428       .  S
C2076      C2077   1.401       .  A
C2076      H2081   1.084       .  S
C2077      C2078   1.411       .  A
C2078      N2082   1.428       .  S
C2079      C2084   1.411       .  A
C2079      C2088   1.393       .  A
N2080      O2095   1.262       .  A
N2080      O2096   1.261       .  A
N2082      O2093   1.261       .  A
N2082      O2094   1.261       .  A
C2084      C2085   1.408       .  A
C2084      N2089   1.427       .  S
C2085      C2086   1.403       .  A
C2085      H2090   1.083       .  S
C2086      C2087   1.417       .  A
C2087      C2088   1.392       .  A
C2087      N2091   1.429       .  S
C2088      H2092   1.085       .  S
N2089      O2099   1.262       .  A
N2089      O2100   1.261       .  A
N2091      O2097   1.261       .  A
N2091      O2098   1.262       .  A
C2101      C2102   1.401       .  A
C2101      C2106   1.403       .  A
C2101      H2111   1.084       .  S
C2102      C2103   1.401       .  A
C2102      C2107   1.473       .  S
C2103      C2104   1.396       .  A
C2103      N2108   1.428       .  S
C2104      C2105   1.404       .  A
C2104      H2109   1.082       .  S
C2105      C2106   1.420       .  A
C2106      N2110   1.441       .  S
C2107      C2112   1.405       .  A
C2107      C2116   1.402       .  A
N2108      O2123   1.262       .  A
N2108      O2124   1.262       .  A
N2110      O2121   1.263       .  A
N2110      O2122   1.259       .  A
C2112      C2113   1.397       .  A
C2112      N2117   1.431       .  S
C2113      C2114   1.405       .  A
C2113      H2118   1.084       .  S
C2114      C2115   1.409       .  A
C2115      C2116   1.405       .  A
C2115      N2119   1.427       .  S
C2116      H2120   1.084       .  S
N2117      O2127   1.262       .  A
N2117      O2128   1.262       .  A
N2119      O2125   1.261       .  A
N2119      O2126   1.262       .  A
C2129      C2130   1.405       .  A
C2129      C2134   1.407       .  A
C2129      H2139   1.084       .  S
C2130      C2131   1.408       .  A
C2130      C2135   1.484       .  S
C2131      C2132   1.399       .  A
C2131      N2136   1.429       .  S
C2132      C2133   1.404       .  A
C2132      H2137   1.085       .  S
C2133      C2134   1.409       .  A
C2134      N2138   1.429       .  S
C2135      C2140   1.408       .  A
C2135      C2144   1.398       .  A
N2136      O2151   1.262       .  A
N2136      O2152   1.262       .  A
N2138      O2149   1.261       .  A
N2138      O2150   1.262       .  A
C2140      C2141   1.403       .  A
C2140      N2145   1.430       .  S
C2141      C2142   1.407       .  A
C2141      H2146   1.073       .  S
C2142      C2143   1.415       .  A
C2143      C2144   1.407       .  A
C2143      N2147   1.428       .  S
C2144      H2148   1.083       .  S
N2145      O2155   1.261       .  A
N2145      O2156   1.262       .  A
N2147      O2153   1.260       .  A
N2147      O2154   1.261       .  A
C2157      C2158   1.421       .  A
C2157      C2162   1.412       .  A
C2157      H2167   1.081       .  S
C2158      C2159   1.417       .  A
C2158      C2163   1.512   1_565  S
C2159      C2160   1.396       .  A
C2159      N2164   1.435       .  S
C2160      C2161   1.396       .  A
C2160      H2165   1.070       .  S
C2161      C2162   1.402       .  A
C2162      N2166   1.428       .  S
C2163      C2168   1.425       .  A
C2163      C2172   1.412       .  A
N2164      O2179   1.262       .  A
N2164      O2180   1.263       .  A
N2166      O2177   1.260       .  A
N2166      O2178   1.262       .  A
C2168      C2169   1.399       .  A
C2168      N2173   1.433       .  S
C2169      C2170   1.398       .  A
C2169      H2174   1.084       .  S
C2170      C2171   1.410       .  A
C2171      C2172   1.410       .  A
C2171      N2175   1.429       .  S
C2172      H2176   1.082       .  S
N2173      O2183   1.261       .  A
N2173      O2184   1.263       .  A
N2175      O2181   1.261       .  A
N2175      O2182   1.261       .  A
C2185      C2186   1.411       .  A
C2185      C2190   1.412       .  A
C2185      H2195   1.079       .  S
C2186      C2187   1.419       .  A
C2186      C2191   1.508   1_554  S
C2187      C2188   1.392       .  A
C2187      N2192   1.431       .  S
C2188      C2189   1.400       .  A
C2188      H2193   1.080       .  S
C2189      C2190   1.414       .  A
C2190      N2194   1.429       .  S
C2191      C2196   1.425       .  A
C2191      C2200   1.407       .  A
N2192      O2207   1.262       .  A
N2192      O2208   1.259       .  A
N2194      O2205   1.261       .  A
N2194      O2206   1.260       .  A
C2196      C2197   1.410       .  A
C2196      N2201   1.430       .  S
C2197      C2198   1.401       .  A
C2197      H2202   1.080       .  S
C2198      C2199   1.407       .  A
C2199      C2200   1.391       .  A
C2199      N2203   1.433       .  S
C2200      H2204   1.079       .  S
N2201      O2211   1.262       .  A
N2201      O2212   1.261       .  A
N2203      O2209   1.260       .  A
N2203      O2210   1.260       .  A
C2213      C2214   1.403       .  A
C2213      C2218   1.410       .  A
C2213      H2223   1.084       .  S
C2214      C2215   1.407       .  A
C2214      C2219   1.502       .  S
C2215      C2216   1.408       .  A
C2215      N2220   1.428       .  S
C2216      C2217   1.411       .  A
C2216      H2221   1.079       .  S
C2217      C2218   1.421       .  A
C2218      N2222   1.424       .  S
C2219      C2224   1.412       .  A
C2219      C2228   1.409       .  A
N2220      O2235   1.262       .  A
N2220      O2236   1.262       .  A
N2222      O2233   1.262       .  A
N2222      O2234   1.261       .  A
C2224      C2225   1.403       .  A
C2224      N2229   1.430       .  S
C2225      C2226   1.408       .  A
C2225      H2230   1.084       .  S
C2226      C2227   1.414       .  A
C2227      C2228   1.414       .  A
C2227      N2231   1.428       .  S
C2228      H2232   1.083       .  S
N2229      O2239   1.262       .  A
N2229      O2240   1.262       .  A
N2231      O2237   1.262       .  A
N2231      O2238   1.262       .  A
C2241      C2242   1.400       .  A
C2241      C2246   1.407       .  A
C2241      H2251   1.084       .  S
C2242      C2243   1.404       .  A
C2242      C2247   1.482       .  S
C2243      C2244   1.404       .  A
C2243      N2248   1.428       .  S
C2244      C2245   1.408       .  A
C2244      H2249   1.084       .  S
C2245      C2246   1.423       .  A
C2246      N2250   1.441       .  S
C2247      C2252   1.401       .  A
C2247      C2256   1.407       .  A
N2248      O2263   1.262       .  A
N2248      O2264   1.262       .  A
N2250      O2261   1.263       .  A
N2250      O2262   1.260       .  A
C2252      C2253   1.391       .  A
C2252      N2257   1.427       .  S
C2253      C2254   1.408       .  A
C2253      H2258   1.084       .  S
C2254      C2255   1.412       .  A
C2255      C2256   1.413       .  A
C2255      N2259   1.429       .  S
C2256      H2260   1.083       .  S
N2257      O2267   1.262       .  A
N2257      O2268   1.260       .  A
N2259      O2265   1.262       .  A
N2259      O2266   1.262       .  A
C2269      C2270   1.403       .  A
C2269      C2274   1.408       .  A
C2269      H2279   1.084       .  S
C2270      C2271   1.416       .  A
C2270      C2275   1.499       .  S
C2271      C2272   1.407       .  A
C2271      N2276   1.430       .  S
C2272      C2273   1.404       .  A
C2272      H2277   1.082       .  S
C2273      C2274   1.414       .  A
C2274      N2278   1.429       .  S
C2275      C2280   1.410       .  A
C2275      C2284   1.410       .  A
N2276      O2291   1.262       .  A
N2276      O2292   1.262       .  A
N2278      O2289   1.261       .  A
N2278      O2290   1.260       .  A
C2280      C2281   1.402       .  A
C2280      N2285   1.430       .  S
C2281      C2282   1.409       .  A
C2281      H2286   1.085       .  S
C2282      C2283   1.411       .  A
C2283      C2284   1.415       .  A
C2283      N2287   1.427       .  S
C2284      H2288   1.084       .  S
N2285      O2295   1.262       .  A
N2285      O2296   1.262       .  A
N2287      O2293   1.262       .  A
N2287      O2294   1.261       .  A
C2297      C2298   1.400       .  A
C2297      C2302   1.407       .  A
C2297      H2307   1.083       .  S
C2298      C2299   1.414       .  A
C2298      C2303   1.495       .  S
C2299      C2300   1.408       .  A
C2299      N2304   1.429       .  S
C2300      C2301   1.404       .  A
C2300      H2305   1.083       .  S
C2301      C2302   1.418       .  A
C2302      N2306   1.428       .  S
C2303      C2308   1.417       .  A
C2303      C2312   1.396       .  A
N2304      O2319   1.262       .  A
N2304      O2320   1.261       .  A
N2306      O2317   1.261       .  A
N2306      O2318   1.261       .  A
C2308      C2309   1.415       .  A
C2308      N2313   1.429       .  S
C2309      C2310   1.403       .  A
C2309      H2314   1.084       .  S
C2310      C2311   1.416       .  A
C2311      C2312   1.399       .  A
C2311      N2315   1.426       .  S
C2312      H2316   1.084       .  S
N2313      O2323   1.262       .  A
N2313      O2324   1.262       .  A
N2315      O2321   1.262       .  A
N2315      O2322   1.262       .  A
C2325      C2326   1.403       .  A
C2325      C2330   1.405       .  A
C2325      H2335   1.083       .  S
C2326      C2327   1.415       .  A
C2326      C2331   1.485       .  S
C2327      C2328   1.397       .  A
C2327      N2332   1.429       .  S
C2328      C2329   1.399       .  A
C2328      H2333   1.084       .  S
C2329      C2330   1.410       .  A
C2330      N2334   1.428       .  S
C2331      C2336   1.414       .  A
C2331      C2340   1.394       .  A
N2332      O2347   1.262       .  A
N2332      O2348   1.261       .  A
N2334      O2345   1.261       .  A
N2334      O2346   1.261       .  A
C2336      C2337   1.412       .  A
C2336      N2341   1.427       .  S
C2337      C2338   1.405       .  A
C2337      H2342   1.083       .  S
C2338      C2339   1.421       .  A
C2339      C2340   1.390       .  A
C2339      N2343   1.430       .  S
C2340      H2344   1.084       .  S
N2341      O2351   1.262       .  A
N2341      O2352   1.261       .  A
N2343      O2349   1.261       .  A
N2343      O2350   1.262       .  A
C2353      C2354   1.400       .  A
C2353      C2358   1.405       .  A
C2353      H2363   1.084       .  S
C2354      C2355   1.409       .  A
C2354      C2359   1.489       .  S
C2355      C2356   1.404       .  A
C2355      N2360   1.428       .  S
C2356      C2357   1.407       .  A
C2356      H2361   1.078       .  S
C2357      C2358   1.419       .  A
C2358      N2362   1.429       .  S
C2359      C2364   1.411       .  A
C2359      C2368   1.400       .  A
N2360      O2375   1.262       .  A
N2360      O2376   1.261       .  A
N2362      O2373   1.261       .  A
N2362      O2374   1.262       .  A
C2364      C2365   1.408       .  A
C2364      N2369   1.428       .  S
C2365      C2366   1.407       .  A
C2365      H2370   1.084       .  S
C2366      C2367   1.414       .  A
C2367      C2368   1.401       .  A
C2367      N2371   1.427       .  S
C2368      H2372   1.084       .  S
N2369      O2379   1.262       .  A
N2369      O2380   1.262       .  A
N2371      O2377   1.262       .  A
N2371      O2378   1.262       .  A
C2381      C2382   1.396       .  A
C2381      C2386   1.402       .  A
C2381      H2391   1.085       .  S
C2382      C2383   1.401       .  A
C2382      C2387   1.486       .  S
C2383      C2384   1.405       .  A
C2383      N2388   1.428       .  S
C2384      C2385   1.418       .  A
C2384      H2389   1.083       .  S
C2385      C2386   1.428       .  A
C2386      N2390   1.425       .  S
C2387      C2392   1.407       .  A
C2387      C2396   1.406       .  A
N2388      O2403   1.262       .  A
N2388      O2404   1.262       .  A
N2390      O2401   1.261       .  A
N2390      O2402   1.261       .  A
C2392      C2393   1.396       .  A
C2392      N2397   1.430       .  S
C2393      C2394   1.406       .  A
C2393      H2398   1.084       .  S
C2394      C2395   1.415       .  A
C2395      C2396   1.412       .  A
C2395      N2399   1.428       .  S
C2396      H2400   1.083       .  S
N2397      O2407   1.262       .  A
N2397      O2408   1.262       .  A
N2399      O2405   1.261       .  A
N2399      O2406   1.262       .  A
C2409      C2410   1.397       .  A
C2409      C2414   1.391       .  A
C2409      H2419   1.083       .  S
C2410      C2411   1.413       .  A
C2410      C2415   1.485       .  S
C2411      C2412   1.407       .  A
C2411      N2416   1.428       .  S
C2412      C2413   1.405       .  A
C2412      H2417   1.083       .  S
C2413      C2414   1.419       .  A
C2414      N2418   1.429       .  S
C2415      C2420   1.416       .  A
C2415      C2424   1.404       .  A
N2416      O2431   1.262       .  A
N2416      O2432   1.261       .  A
N2418      O2429   1.262       .  A
N2418      O2430   1.261       .  A
C2420      C2421   1.397       .  A
C2420      N2425   1.430       .  S
C2421      C2422   1.401       .  A
C2421      H2426   1.084       .  S
C2422      C2423   1.409       .  A
C2423      C2424   1.401       .  A
C2423      N2427   1.428       .  S
C2424      H2428   1.083       .  S
N2425      O2435   1.262       .  A
N2425      O2436   1.261       .  A
N2427      O2433   1.262       .  A
N2427      O2434   1.261       .  A
C2437      C2438   1.396       .  A
C2437      C2442   1.398       .  A
C2437      H2447   1.083       .  S
C2438      C2439   1.413       .  A
C2438      C2443   1.502   1_545  S
C2439      C2440   1.415       .  A
C2439      N2444   1.428       .  S
C2440      C2441   1.414       .  A
C2440      H2445   1.082       .  S
C2441      C2442   1.420       .  A
C2442      N2446   1.425       .  S
C2443      C2448   1.412       .  A
C2443      C2452   1.406       .  A
N2444      O2459   1.261       .  A
N2444      O2460   1.260       .  A
N2446      O2457   1.258       .  A
N2446      O2458   1.261       .  A
C2448      C2449   1.397       .  A
C2448      N2453   1.431       .  S
C2449      C2450   1.403       .  A
C2449      H2454   1.068       .  S
C2450      C2451   1.422       .  A
C2451      C2452   1.416       .  A
C2451      N2455   1.426       .  S
C2452      H2456   1.082       .  S
N2453      O2463   1.262       .  A
N2453      O2464   1.261       .  A
N2455      O2461   1.261       .  A
N2455      O2462   1.260       .  A
C2465      C2466   1.405       .  A
C2465      C2470   1.416       .  A
C2465      H2475   1.083       .  S
C2466      C2467   1.407       .  A
C2466      C2471   1.504       .  S
C2467      C2468   1.407       .  A
C2467      N2472   1.427       .  S
C2468      C2469   1.407       .  A
C2468      H2473   1.083       .  S
C2469      C2470   1.423       .  A
C2470      N2474   1.441       .  S
C2471      C2476   1.407       .  A
C2471      C2480   1.412       .  A
N2472      O2487   1.262       .  A
N2472      O2488   1.261       .  A
N2474      O2485   1.260       .  A
N2474      O2486   1.262       .  A
C2476      C2477   1.400       .  A
C2476      N2481   1.428       .  S
C2477      C2478   1.409       .  A
C2477      H2482   1.085       .  S
C2478      C2479   1.414       .  A
C2479      C2480   1.421       .  A
C2479      N2483   1.427       .  S
C2480      H2484   1.083       .  S
N2481      O2491   1.262       .  A
N2481      O2492   1.261       .  A
N2483      O2489   1.262       .  A
N2483      O2490   1.261       .  A
C2493      C2494   1.397       .  A
C2493      C2498   1.398       .  A
C2493      H2503   1.084       .  S
C2494      C2495   1.410       .  A
C2494      C2499   1.487       .  S
C2495      C2496   1.407       .  A
C2495      N2500   1.427       .  S
C2496      C2497   1.408       .  A
C2496      H2501   1.083       .  S
C2497      C2498   1.418       .  A
C2498      N2502   1.427       .  S
C2499      C2504   1.413       .  A
C2499      C2508   1.403       .  A
N2500      O2515   1.262       .  A
N2500      O2516   1.261       .  A
N2502      O2513   1.262       .  A
N2502      O2514   1.262       .  A
C2504      C2505   1.399       .  A
C2504      N2509   1.429       .  S
C2505      C2506   1.401       .  A
C2505      H2510   1.079       .  S
C2506      C2507   1.409       .  A
C2507      C2508   1.403       .  A
C2507      N2511   1.429       .  S
C2508      H2512   1.083       .  S
N2509      O2519   1.262       .  A
N2509      O2520   1.262       .  A
N2511      O2517   1.261       .  A
N2511      O2518   1.260       .  A
C2521      C2522   1.403       .  A
C2521      C2526   1.405       .  A
C2521      H2531   1.084       .  S
C2522      C2523   1.413       .  A
C2522      C2527   1.488       .  S
C2523      C2524   1.402       .  A
C2523      N2528   1.428       .  S
C2524      C2525   1.402       .  A
C2524      H2529   1.084       .  S
C2525      C2526   1.411       .  A
C2526      N2530   1.428       .  S
C2527      C2532   1.409       .  A
C2527      C2536   1.402       .  A
N2528      O2543   1.262       .  A
N2528      O2544   1.261       .  A
N2530      O2541   1.262       .  A
N2530      O2542   1.261       .  A
C2532      C2533   1.402       .  A
C2532      N2537   1.430       .  S
C2533      C2534   1.408       .  A
C2533      H2538   1.084       .  S
C2534      C2535   1.418       .  A
C2535      C2536   1.404       .  A
C2535      N2539   1.429       .  S
C2536      H2540   1.084       .  S
N2537      O2547   1.262       .  A
N2537      O2548   1.262       .  A
N2539      O2545   1.262       .  A
N2539      O2546   1.262       .  A
C2549      C2550   1.404       .  A
C2549      C2554   1.406       .  A
C2549      H2559   1.083       .  S
C2550      C2551   1.410       .  A
C2550      C2555   1.485       .  S
C2551      C2552   1.395       .  A
C2551      N2556   1.429       .  S
C2552      C2553   1.403       .  A
C2552      H2557   1.084       .  S
C2553      C2554   1.415       .  A
C2554      N2558   1.429       .  S
C2555      C2560   1.404       .  A
C2555      C2564   1.401       .  A
N2556      O2571   1.262       .  A
N2556      O2572   1.261       .  A
N2558      O2569   1.262       .  A
N2558      O2570   1.262       .  A
C2560      C2561   1.401       .  A
C2560      N2565   1.428       .  S
C2561      C2562   1.413       .  A
C2561      H2566   1.084       .  S
C2562      C2563   1.419       .  A
C2563      C2564   1.401       .  A
C2563      N2567   1.425       .  S
C2564      H2568   1.084       .  S
N2565      O2575   1.262       .  A
N2565      O2576   1.262       .  A
N2567      O2573   1.260       .  A
N2567      O2574   1.262       .  A
C2577      C2578   1.409       .  A
C2577      C2582   1.417       .  A
C2577      H2587   1.082       .  S
C2578      C2579   1.417       .  A
C2578      C2583   1.503   1_455  S
C2579      C2580   1.392       .  A
C2579      N2584   1.432       .  S
C2580      C2581   1.400       .  A
C2580      H2585   1.080       .  S
C2581      C2582   1.418       .  A
C2582      N2586   1.428       .  S
C2583      C2588   1.416       .  A
C2583      C2592   1.397       .  A
N2584      O2599   1.263       .  A
N2584      O2600   1.261       .  A
N2586      O2597   1.261       .  A
N2586      O2598   1.262       .  A
C2588      C2589   1.416       .  A
C2588      N2593   1.427       .  S
C2589      C2590   1.411       .  A
C2589      H2594   1.083       .  S
C2590      C2591   1.412       .  A
C2591      C2592   1.392       .  A
C2591      N2595   1.426       .  S
C2592      H2596   1.083       .  S
N2593      O2603   1.262       .  A
N2593      O2604   1.261       .  A
N2595      O2601   1.260       .  A
N2595      O2602   1.257       .  A
C2605      C2606   1.402       .  A
C2605      C2610   1.402       .  A
C2605      H2615   1.083       .  S
C2606      C2607   1.408       .  A
C2606      C2611   1.484       .  S
C2607      C2608   1.398       .  A
C2607      N2612   1.428       .  S
C2608      C2609   1.404       .  A
C2608      H2613   1.084       .  S
C2609      C2610   1.420       .  A
C2610      N2614   1.436       .  S
C2611      C2616   1.408       .  A
C2611      C2620   1.405       .  A
N2612      O2627   1.262       .  A
N2612      O2628   1.262       .  A
N2614      O2625   1.262       .  A
N2614      O2626   1.260       .  A
C2616      C2617   1.394       .  A
C2616      N2621   1.430       .  S
C2617      C2618   1.409       .  A
C2617      H2622   1.083       .  S
C2618      C2619   1.413       .  A
C2619      C2620   1.405       .  A
C2619      N2623   1.428       .  S
C2620      H2624   1.083       .  S
N2621      O2631   1.262       .  A
N2621      O2632   1.262       .  A
N2623      O2629   1.262       .  A
N2623      O2630   1.262       .  A
C2633      C2634   1.400       .  A
C2633      C2638   1.394       .  A
C2633      H2643   1.084       .  S
C2634      C2635   1.407       .  A
C2634      C2639   1.482       .  S
C2635      C2636   1.402       .  A
C2635      N2640   1.429       .  S
C2636      C2637   1.408       .  A
C2636      H2641   1.084       .  S
C2637      C2638   1.413       .  A
C2638      N2642   1.425       .  S
C2639      C2644   1.413       .  A
C2639      C2648   1.403       .  A
N2640      O2655   1.262       .  A
N2640      O2656   1.262       .  A
N2642      O2653   1.263       .  A
N2642      O2654   1.260       .  A
C2644      C2645   1.392       .  A
C2644      N2649   1.427       .  S
C2645      C2646   1.395       .  A
C2645      H2650   1.085       .  S
C2646      C2647   1.411       .  A
C2647      C2648   1.402       .  A
C2647      N2651   1.429       .  S
C2648      H2652   1.083       .  S
N2649      O2659   1.262       .  A
N2649      O2660   1.260       .  A
N2651      O2657   1.262       .  A
N2651      O2658   1.262       .  A
C2661      C2662   1.402       .  A
C2661      C2666   1.396       .  A
C2661      H2671   1.084       .  S
C2662      C2663   1.405       .  A
C2662      C2667   1.480       .  S
C2663      C2664   1.398       .  A
C2663      N2668   1.429       .  S
C2664      C2665   1.405       .  A
C2664      H2669   1.083       .  S
C2665      C2666   1.416       .  A
C2666      N2670   1.431       .  S
C2667      C2672   1.412       .  A
C2667      C2676   1.403       .  A
N2668      O2683   1.262       .  A
N2668      O2684   1.262       .  A
N2670      O2681   1.262       .  A
N2670      O2682   1.260       .  A
C2672      C2673   1.390       .  A
C2672      N2677   1.428       .  S
C2673      C2674   1.396       .  A
C2673      H2678   1.085       .  S
C2674      C2675   1.414       .  A
C2675      C2676   1.402       .  A
C2675      N2679   1.430       .  S
C2676      H2680   1.083       .  S
N2677      O2687   1.262       .  A
N2677      O2688   1.261       .  A
N2679      O2685   1.261       .  A
N2679      O2686   1.262       .  A
C2689      C2690   1.400       .  A
C2689      C2694   1.405       .  A
C2689      H2699   1.084       .  S
C2690      C2691   1.410       .  A
C2690      C2695   1.483       .  S
C2691      C2692   1.403       .  A
C2691      N2696   1.430       .  S
C2692      C2693   1.404       .  A
C2692      H2697   1.084       .  S
C2693      C2694   1.413       .  A
C2694      N2698   1.428       .  S
C2695      C2700   1.408       .  A
C2695      C2704   1.400       .  A
N2696      O2711   1.262       .  A
N2696      O2712   1.261       .  A
N2698      O2709   1.262       .  A
N2698      O2710   1.262       .  A
C2700      C2701   1.399       .  A
C2700      N2705   1.428       .  S
C2701      C2702   1.405       .  A
C2701      H2706   1.084       .  S
C2702      C2703   1.416       .  A
C2703      C2704   1.405       .  A
C2703      N2707   1.429       .  S
C2704      H2708   1.084       .  S
N2705      O2715   1.262       .  A
N2705      O2716   1.262       .  A
N2707      O2713   1.262       .  A
N2707      O2714   1.261       .  A
C2717      C2718   1.409       .  A
C2717      C2722   1.410       .  A
C2717      H2727   1.080       .  S
C2718      C2719   1.419       .  A
C2718      C2723   1.499   1_565  S
C2719      C2720   1.390       .  A
C2719      N2724   1.431       .  S
C2720      C2721   1.396       .  A
C2720      H2725   1.085       .  S
C2721      C2722   1.411       .  A
C2722      N2726   1.427       .  S
C2723      C2728   1.417       .  A
C2723      C2732   1.401       .  A
N2724      O2739   1.262       .  A
N2724      O2740   1.260       .  A
N2726      O2737   1.260       .  A
N2726      O2738   1.260       .  A
C2728      C2729   1.405       .  A
C2728      N2733   1.427       .  S
C2729      C2730   1.402       .  A
C2729      H2734   1.082       .  S
C2730      C2731   1.417       .  A
C2731      C2732   1.397       .  A
C2731      N2735   1.435       .  S
C2732      H2736   1.083       .  S
N2733      O2743   1.262       .  A
N2733      O2744   1.261       .  A
N2735      O2741   1.260       .  A
N2735      O2742   1.262       .  A
C2745      C2746   1.409       .  A
C2745      C2750   1.415       .  A
C2745      H2755   1.083       .  S
C2746      C2747   1.414       .  A
C2746      C2751   1.499   1_455  S
C2747      C2748   1.391       .  A
C2747      N2752   1.433       .  S
C2748      C2749   1.397       .  A
C2748      H2753   1.076       .  S
C2749      C2750   1.420       .  A
C2750      N2754   1.431       .  S
C2751      C2756   1.417       .  A
C2751      C2760   1.398       .  A
N2752      O2767   1.262       .  A
N2752      O2768   1.261       .  A
N2754      O2765   1.261       .  A
N2754      O2766   1.262       .  A
C2756      C2757   1.418       .  A
C2756      N2761   1.432       .  S
C2757      C2758   1.410       .  A
C2757      H2762   1.081       .  S
C2758      C2759   1.412       .  A
C2759      C2760   1.389       .  A
C2759      N2763   1.427       .  S
C2760      H2764   1.083       .  S
N2761      O2771   1.262       .  A
N2761      O2772   1.261       .  A
N2763      O2769   1.259       .  A
N2763      O2770   1.262       .  A
