geometry optimzed in LAMMPS
_audit_creation_date              2020-12-01 
_audit_creation_method            'lammps2cif' 
_symmetry_space_group_name_H-M    'P1' 
_symmetry_Int_Tables_number       1 
_symmetry_cell_setting            triclinic 
loop_ 
_symmetry_equiv_pos_as_xyz 
  x,y,z 
_cell_length_a                    41.98707016 
_cell_length_b                    44.23544001850568 
_cell_length_c                    36.51578062154251 
_cell_angle_alpha                 90.11715596831985 
_cell_angle_beta                  89.76324206493967 
_cell_angle_gamma                 91.43366099006792 
loop_ 
_atom_site_label 
_atom_site_type_symbol 
_atom_site_fract_x 
_atom_site_fract_y 
_atom_site_fract_z 
_atom_site_charge 
O1          O  0.03116316  0.28066868  0.53453626    -0.73300
O2          O  0.02537751  0.21355421  0.45968894    -0.74300
O3          O  0.02550217  0.27771407  0.45761160    -0.62900
O4          O  0.03127253  0.21608023  0.53756104    -0.71300
O5          O  0.47867246  0.21583761  0.54364877    -0.70800
O6          O  0.47280811  0.27627589  0.46251118    -0.62100
O7          O  0.47282811  0.21203839  0.46628625    -0.74600
O8          O  0.47844279  0.27933797  0.53905576    -0.73400
Cu9        Cu  0.03021428  0.24695122  0.49717453     1.04600
Cu10       Cu  0.47390875  0.24574582  0.50302391     1.04300
C11         C  0.00544783  0.29095967  0.54807184     0.92900
C12         C  0.49805453  0.20223875  0.45115098     0.92100
C13         C  0.49827646  0.28713889  0.44780095     0.84200
C14         C  0.00585615  0.20647618  0.55358806     0.90500
C15         C  0.49701101  0.46729274  0.27805805     0.86200
C16         C  0.46888325  0.46986546  0.25185116    -0.54100
C17         C  0.46774136  0.99676478  0.23352059     0.09100
C18         C  0.49621155  0.01852169  0.24237014     0.20000
C19         C  0.02608558  0.47295335  0.25318236    -0.54800
C20         C  0.02639483  0.99999012  0.23481890     0.09200
C21         C  0.49535584  0.99520943  0.30270868    -0.54300
C22         C  0.99494699  0.02195694  0.28428929     0.09700
H23         H  0.45129848  0.45170345  0.24830197     0.14300
H24         H  0.49556913  0.04059557  0.22812034     0.00000
H25         H  0.04387935  0.45617379  0.24833156     0.14600
H26         H  0.49431048  0.99392743  0.33241029     0.14400
C27         C  0.99866339  0.47284528  0.71595830     0.86200
C28         C  0.02752085  0.47442690  0.74161437    -0.54100
C29         C  0.02879604  0.99931664  0.76392929     0.09100
C30         C  0.00011942  0.02016479  0.75919043     0.20000
C31         C  0.46998976  0.47460652  0.74214695    -0.54800
C32         C  0.47073575  0.99913932  0.76498297     0.09200
C33         C  0.99959821  0.00299322  0.69573698    -0.54300
C34         C  0.50054057  0.02778448  0.71804967     0.09700
H35         H  0.04539773  0.45711835  0.74194022     0.14300
H36         H  0.00078283  0.04048560  0.77706128     0.00000
H37         H  0.45107463  0.45765572  0.74414471     0.14600
H38         H  0.00040688  0.00468180  0.66605613     0.14400
O39         O  0.21563675  0.05077691  0.03719845    -0.73300
O40         O  0.28380226  0.04419894  0.95923056    -0.74300
O41         O  0.21582619  0.04722076  0.95964168    -0.62500
O42         O  0.28399607  0.04780823  0.03720044    -0.71300
O43         O  0.27885559  0.49781538  0.04126781    -0.70800
O44         O  0.21365840  0.49698155  0.96177958    -0.62100
O45         O  0.28068754  0.49422669  0.96382034    -0.74600
O46         O  0.21218307  0.50060432  0.03953133    -0.73400
Cu47       Cu  0.24996115  0.04932417  0.99819205     1.04600
Cu48       Cu  0.24619311  0.49573262  0.00167130     1.04300
C49         C  0.20325164  0.02649271  0.05059096     0.92900
C50         C  0.29314819  0.01807329  0.94940674     0.92100
C51         C  0.20430397  0.02188582  0.94837739     0.84200
C52         C  0.29183205  0.02278622  0.05170628     0.90500
C53         C  0.05593247  0.00551448  0.78913359    -0.01600
C54         C  0.08654446  0.99607426  0.77973996    -0.09600
C55         C  0.11191733  0.99984858  0.80389283    -0.18500
C56         C  0.10761510  0.01345026  0.83851225     0.03900
C57         C  0.07703774  0.02471761  0.84709629     0.18100
C58         C  0.05151156  0.02043439  0.82260985    -0.19900
C59         C  0.07207513  0.03988104  0.88024235    -0.21200
C60         C  0.09677938  0.04386240  0.90522244    -0.19700
C61         C  0.12677040  0.03192665  0.89820062     0.19500
C62         C  0.13250998  0.01616064  0.86492062     0.01600
C63         C  0.16255458  0.00284611  0.86010543    -0.14500
C64         C  0.18574148  0.00497478  0.88728414    -0.12200
C65         C  0.18013105  0.02107658  0.91948695     0.01100
C66         C  0.15084800  0.03488612  0.92471211    -0.24300
H67         H  0.09107398  0.98571013  0.75340575     0.09200
H68         H  0.13467315  0.99213418  0.79447531     0.12700
H69         H  0.02803961  0.02802853  0.83015707     0.11400
H70         H  0.04892400  0.04875838  0.88688498     0.12600
H71         H  0.09217598  0.05574351  0.93061106     0.11700
H72         H  0.16852455  0.98980254  0.83621156     0.08700
H73         H  0.20825653  0.99397819  0.88314600     0.12000
H74         H  0.14639997  0.04686912  0.95009875     0.13900
C75         C  0.44657826  0.00246335  0.79447641    -0.01600
C76         C  0.43549215  0.47667273  0.81339540    -0.09600
C77         C  0.41073916  0.47830669  0.83869641    -0.18500
C78         C  0.39604883  0.00604478  0.84617939     0.03900
C79         C  0.40842499  0.03249053  0.82847037     0.18100
C80         C  0.43351051  0.03049451  0.80282049    -0.19900
C81         C  0.39547924  0.06065144  0.83631542    -0.21200
C82         C  0.37065891  0.06313274  0.86150548    -0.19700
C83         C  0.35764886  0.03743350  0.87889496     0.19500
C84         C  0.36978629  0.00843726  0.87093259     0.01600
C85         C  0.35487791  0.48299672  0.88783318    -0.14500
C86         C  0.32991139  0.48635465  0.91265869    -0.12200
C87         C  0.31877574  0.01507325  0.92162049     0.01100
C88         C  0.33256269  0.04052715  0.90425263    -0.24300
H89         H  0.44599827  0.45490961  0.80848024     0.09200
H90         H  0.40384686  0.45746138  0.85207032     0.12700
H91         H  0.44218915  0.05056511  0.78859876     0.11400
H92         H  0.40476147  0.08094308  0.82306242     0.12600
H93         H  0.36141877  0.08531245  0.86723775     0.11700
H94         H  0.36174708  0.46014097  0.88226911     0.08700
H95         H  0.31946721  0.46622553  0.92514063     0.12000
H96         H  0.32386426  0.06282311  0.91053738     0.13900
C97         C  0.17874884  0.02772228  0.07952004    -0.01600
C98         C  0.15296707  0.04706457  0.07700843    -0.09600
C99         C  0.12817460  0.04549167  0.10286240    -0.18500
C100        C  0.12896658  0.02483167  0.13242898     0.03900
C101        C  0.15642025  0.00683564  0.13588934     0.18100
C102        C  0.18051060  0.00802807  0.10925131    -0.19900
C103        C  0.15959309  0.98739121  0.16568180    -0.21200
C104        C  0.13579512  0.98496261  0.19198994    -0.19700
C105        C  0.10771148  0.00103944  0.18839894     0.19500
C106        C  0.10360129  0.02102536  0.15850716     0.01600
C107        C  0.07393738  0.03538900  0.15555905    -0.14500
C108        C  0.04912491  0.02919797  0.18055544    -0.12200
C109        C  0.05328892  0.00912064  0.20975157     0.01100
C110        C  0.08332429  0.99630719  0.21412572    -0.24300
H111        H  0.15142630  0.06264325  0.05427028     0.09200
H112        H  0.10874236  0.06064477  0.09909249     0.12700
H113        H  0.20082537  0.99347039  0.11158474     0.11400
H114        H  0.18063098  0.97390454  0.16863530     0.12600
H115        H  0.13895270  0.96960713  0.21471432     0.11700
H116        H  0.06882171  0.05055212  0.13338497     0.08700
H117        H  0.02641297  0.03955080  0.17618180     0.12000
H118        H  0.08785461  0.98187757  0.23733390     0.13900
C119        C  0.31581703  0.02220852  0.08100732    -0.01600
C120        C  0.31078276  0.00302944  0.11094811    -0.09600
C121        C  0.33389421  0.00040781  0.13794930    -0.18500
C122        C  0.36339633  0.01644004  0.13534089     0.03900
C123        C  0.36852071  0.03573458  0.10465229     0.18100
C124        C  0.34445640  0.03901414  0.07828802    -0.19900
C125        C  0.39797376  0.05082678  0.09991155    -0.21200
C126        C  0.42277296  0.04650391  0.12444245    -0.19700
C127        C  0.41847620  0.02764884  0.15491799     0.19500
C128        C  0.38837841  0.01310676  0.16134717     0.01600
C129        C  0.38463330  0.49570476  0.19347175    -0.14500
C130        C  0.41010912  0.49143355  0.21698216    -0.12200
C131        C  0.44040911  0.00401784  0.20940744     0.01100
C132        C  0.44419363  0.02285751  0.17876226    -0.24300
H133        H  0.28877822  0.48983185  0.11342616     0.09200
H134        H  0.32830567  0.48486483  0.15985505     0.12700
H135        H  0.34857276  0.05352061  0.05474655     0.11400
H136        H  0.40212637  0.06549431  0.07654912     0.12600
H137        H  0.44551399  0.05792185  0.11947102     0.11700
H138        H  0.36223747  0.48522847  0.20144063     0.08700
H139        H  0.40585035  0.47807204  0.24139727     0.12000
H140        H  0.46730653  0.03311586  0.17277859     0.13900
C141        C  0.49642082  0.31143089  0.42020380    -0.01600
C142        C  0.46750959  0.32547443  0.41339539    -0.09600
C143        C  0.46610557  0.34987571  0.38932217    -0.18500
C144        C  0.49378734  0.36110305  0.37120256     0.03900
C145        C  0.02289975  0.34619623  0.37755492     0.18100
C146        C  0.02396258  0.32175756  0.40187445    -0.19900
C147        C  0.05091054  0.35597001  0.35989854    -0.21200
C148        C  0.05080466  0.38054743  0.33634904    -0.19700
C149        C  0.02274093  0.39612943  0.33011830     0.19500
C150        C  0.49380768  0.38671844  0.34742808     0.01600
C151        C  0.46647997  0.40392314  0.34106509    -0.14500
C152        C  0.46789609  0.42931918  0.31847048    -0.12200
C153        C  0.49625567  0.43825264  0.30058908     0.01100
C154        C  0.02373668  0.42153822  0.30717705    -0.24300
H155        H  0.44587883  0.31793695  0.42723749     0.09200
H156        H  0.44302845  0.35949824  0.38562933     0.12700
H157        H  0.04645528  0.31097193  0.40678460     0.11400
H158        H  0.07312206  0.34461710  0.36448012     0.12600
H159        H  0.07295067  0.38762788  0.32321725     0.11700
H160        H  0.44378077  0.39876893  0.35372815     0.08700
H161        H  0.44658882  0.44234544  0.31522478     0.12000
H162        H  0.04651132  0.42870825  0.29597381     0.13900
C163        C  0.49539295  0.17745328  0.42393936    -0.01600
C164        C  0.46826541  0.15839121  0.42358769    -0.09600
C165        C  0.46577026  0.13419716  0.39911277    -0.18500
C166        C  0.49041537  0.12833457  0.37374172     0.03900
C167        C  0.01724787  0.14861297  0.37300279     0.18100
C168        C  0.01967557  0.17263652  0.39825989    -0.19900
C169        C  0.04163858  0.14457494  0.34731931    -0.21200
C170        C  0.04040910  0.12034408  0.32294515    -0.19700
C171        C  0.01508935  0.09916917  0.32413279     0.19500
C172        C  0.48964655  0.10287982  0.34953073     0.01600
C173        C  0.46518055  0.08031816  0.35055044    -0.14500
C174        C  0.46660825  0.05468704  0.32837941    -0.12200
C175        C  0.99191309  0.05099263  0.30389201     0.01100
C176        C  0.01564345  0.07362680  0.30106852    -0.24300
H177        H  0.44901165  0.16182781  0.44287509     0.09200
H178        H  0.44420851  0.12054888  0.40076529     0.12700
H179        H  0.04048103  0.18765977  0.39784218     0.11400
H180        H  0.06197225  0.16013681  0.34627575     0.12600
H181        H  0.05984598  0.11770135  0.30367176     0.11700
H182        H  0.44520900  0.08120871  0.36908948     0.08700
H183        H  0.44809947  0.03728109  0.33083503     0.12000
H184        H  0.03543092  0.07050543  0.28236215     0.13900
C185        C  0.00634019  0.31698200  0.57351657    -0.01600
C186        C  0.03389881  0.33515850  0.57756651    -0.09600
C187        C  0.03368650  0.36100329  0.59969568    -0.18500
C188        C  0.50571604  0.36939633  0.61856502     0.03900
C189        C  0.47812283  0.35037434  0.61490942     0.18100
C190        C  0.47865192  0.32469562  0.59250773    -0.19900
C191        C  0.44999678  0.35705951  0.63352107    -0.21200
C192        C  0.44868088  0.38218074  0.65616000    -0.19700
C193        C  0.47536575  0.40140414  0.66043904     0.19500
C194        C  0.50411263  0.39566973  0.64125932     0.01600
C195        C  0.02977575  0.41663911  0.64547151    -0.14500
C196        C  0.02732730  0.44143086  0.66894726    -0.12200
C197        C  0.99954429  0.44609491  0.68955499     0.01100
C198        C  0.47329386  0.42632282  0.68399197    -0.24300
H199        H  0.05556917  0.32971531  0.56305279     0.09200
H200        H  0.05574173  0.37389602  0.60149606     0.12700
H201        H  0.45723039  0.31066918  0.58979826     0.11400
H202        H  0.42889926  0.34261746  0.63076163     0.12600
H203        H  0.42661352  0.38655714  0.67051135     0.11700
H204        H  0.05198689  0.41459960  0.63089641     0.08700
H205        H  0.04756337  0.45697093  0.67143848     0.12000
H206        H  0.45075073  0.43012040  0.69721865     0.13900
C207        C  0.50510051  0.05841895  0.70275511    -0.01600
C208        C  0.48273751  0.08070776  0.70893389    -0.09600
C209        C  0.48404805  0.10756980  0.68870851    -0.18500
C210        C  0.00790782  0.11261602  0.66169944     0.03900
C211        C  0.03203557  0.09082406  0.65808300     0.18100
C212        C  0.03032837  0.06405195  0.67845209    -0.19900
C213        C  0.05698021  0.09518247  0.63299053    -0.21200
C214        C  0.05777649  0.12015179  0.61002020    -0.19700
C215        C  0.03330528  0.14101414  0.61110364     0.19500
C216        C  0.00815990  0.13779556  0.63720340     0.01600
C217        C  0.48358387  0.15907419  0.63627042    -0.14500
C218        C  0.48323937  0.18157170  0.60950497    -0.12200
C219        C  0.50770471  0.18416081  0.58342557     0.01100
C220        C  0.03316005  0.16436236  0.58511990    -0.24300
H221        H  0.46328575  0.07667668  0.72802513     0.09200
H222        H  0.46564179  0.12353009  0.69417677     0.12700
H223        H  0.04800140  0.04687994  0.67427990     0.11400
H224        H  0.07563026  0.07878462  0.63051831     0.12600
H225        H  0.07706695  0.12255833  0.59034010     0.11700
H226        H  0.46370192  0.15825413  0.65502009     0.08700
H227        H  0.46350629  0.19688081  0.60899995     0.12000
H228        H  0.05214756  0.16620361  0.56495717     0.13900
O229        O  0.03116352  0.78068636  0.53446458    -0.73300
O230        O  0.02538558  0.71355500  0.45964025    -0.74300
O231        O  0.02550143  0.77771221  0.45753911    -0.62900
O232        O  0.03128231  0.71609902  0.53750999    -0.71300
O233        O  0.47866850  0.71582331  0.54369522    -0.70800
O234        O  0.47281429  0.77628142  0.46257742    -0.62100
O235        O  0.47282503  0.71204046  0.46633006    -0.74600
O236        O  0.47844792  0.77932527  0.53912350    -0.73400
Cu237      Cu  0.03021875  0.74696053  0.49711353     1.04600
Cu238      Cu  0.47390978  0.74574102  0.50307979     1.04300
C239        C  0.00544656  0.79097626  0.54799743     0.92900
C240        C  0.49805029  0.70224125  0.45119131     0.92100
C241        C  0.49828407  0.78714612  0.44787194     0.84200
C242        C  0.00586747  0.70649535  0.55354041     0.90500
C243        C  0.49700140  0.96726961  0.27807373     0.86200
C244        C  0.46887227  0.96983773  0.25186649    -0.54100
C245        C  0.46775281  0.49679521  0.23351274     0.09100
C246        C  0.49622235  0.51855134  0.24236710     0.20000
C247        C  0.02609722  0.97298667  0.25317072    -0.54800
C248        C  0.02638448  0.49995394  0.23482415     0.09200
C249        C  0.49536444  0.49522873  0.30270046    -0.54300
C250        C  0.99494256  0.52193123  0.28428995     0.09700
H251        H  0.45128916  0.95167391  0.24832168     0.14300
H252        H  0.49557842  0.54062657  0.22812021     0.00000
H253        H  0.04389190  0.95620937  0.24831443     0.14600
H254        H  0.49431681  0.49394105  0.33240156     0.14400
C255        C  0.99865960  0.97280881  0.71596826     0.86200
C256        C  0.02751807  0.97439125  0.74162322    -0.54100
C257        C  0.02880192  0.49935457  0.76391631     0.09100
C258        C  0.00012953  0.52020677  0.75917243     0.20000
C259        C  0.46999411  0.97464646  0.74213641    -0.54800
C260        C  0.47072917  0.49909695  0.76499792     0.09200
C261        C  0.99960816  0.50302719  0.69572111    -0.54300
C262        C  0.50053109  0.52775146  0.71807144     0.09700
H263        H  0.04539808  0.95708560  0.74194434     0.14300
H264        H  0.00079605  0.54052912  0.77704079     0.00000
H265        H  0.45107679  0.95769859  0.74413805     0.14600
H266        H  0.00041772  0.50471167  0.66603998     0.14400
O267        O  0.21562878  0.55074524  0.03721289    -0.73300
O268        O  0.28379105  0.54417198  0.95923953    -0.74300
O269        O  0.21581429  0.54719095  0.95965771    -0.62500
O270        O  0.28398769  0.54778142  0.03720790    -0.71300
O271        O  0.27886073  0.99784227  0.04125510    -0.70800
O272        O  0.21366785  0.99701146  0.96176484    -0.62100
O273        O  0.28069585  0.99425348  0.96380739    -0.74600
O274        O  0.21218888  0.00063615  0.03951675    -0.73400
Cu275      Cu  0.24995106  0.54929529  0.99820386     1.04600
Cu276      Cu  0.24620024  0.99576162  0.00165766     1.04300
C277        C  0.20324513  0.52646047  0.05060568     0.92900
C278        C  0.29313882  0.51804628  0.94941812     0.92100
C279        C  0.20429221  0.52185596  0.94839408     0.84200
C280        C  0.29182657  0.52276082  0.05171454     0.90500
C281        C  0.05593616  0.50554755  0.78912443    -0.01600
C282        C  0.08654731  0.49610432  0.77973260    -0.09600
C283        C  0.11191679  0.49986662  0.80389200    -0.18500
C284        C  0.10761161  0.51345849  0.83851643     0.03900
C285        C  0.07703639  0.52473207  0.84709789     0.18100
C286        C  0.05151330  0.52046110  0.82260445    -0.19900
C287        C  0.07207297  0.53988890  0.88024829    -0.21200
C288        C  0.09677466  0.54385844  0.90523426    -0.19700
C289        C  0.12676287  0.53191565  0.89821452     0.19500
C290        C  0.13250207  0.51615403  0.86493154     0.01600
C291        C  0.16254155  0.50282886  0.86011946    -0.14500
C292        C  0.18572581  0.50494701  0.88730180    -0.12200
C293        C  0.18011773  0.52104805  0.91950559     0.01100
C294        C  0.15083832  0.53486475  0.92472983    -0.24300
H295        H  0.09107810  0.48574563  0.75339546     0.09200
H296        H  0.13467250  0.49215089  0.79447579     0.12700
H297        H  0.02804194  0.52805851  0.83014914     0.11400
H298        H  0.04892360  0.54877093  0.88688926     0.12600
H299        H  0.09217126  0.55573581  0.93062548     0.11700
H300        H  0.16850916  0.48978536  0.83622468     0.08700
H301        H  0.20823775  0.49394471  0.88316453     0.12000
H302        H  0.14639187  0.54684696  0.95011738     0.13900
C303        C  0.44656832  0.50242097  0.79448761    -0.01600
C304        C  0.43550387  0.97671402  0.81338377    -0.09600
C305        C  0.41074972  0.97834536  0.83868317    -0.18500
C306        C  0.39603990  0.50600739  0.84619188     0.03900
C307        C  0.40841467  0.53245113  0.82847749     0.18100
C308        C  0.43350044  0.53045274  0.80282848    -0.19900
C309        C  0.39546707  0.56061256  0.83631570    -0.21200
C310        C  0.37064571  0.56309654  0.86150391    -0.19700
C311        C  0.35763821  0.53739974  0.87890089     0.19500
C312        C  0.36977913  0.50840303  0.87094742     0.01600
C313        C  0.35487964  0.98302828  0.88780685    -0.14500
C314        C  0.32991339  0.98638345  0.91263363    -0.12200
C315        C  0.31876783  0.51504473  0.92163373     0.01100
C316        C  0.33255116  0.54049626  0.90425727    -0.24300
H317        H  0.44601147  0.95495159  0.80846847     0.09200
H318        H  0.40385860  0.95749947  0.85205675     0.12700
H319        H  0.44217931  0.55052224  0.78860470     0.11400
H320        H  0.40474793  0.58090251  0.82305770     0.12600
H321        H  0.36140332  0.58527650  0.86722951     0.11700
H322        H  0.36174390  0.96017281  0.88223152     0.08700
H323        H  0.31946474  0.96625269  0.92510703     0.12000
H324        H  0.32384913  0.56279237  0.91053410     0.13900
C325        C  0.17874240  0.52768915  0.07953430    -0.01600
C326        C  0.15295902  0.54702902  0.07702006    -0.09600
C327        C  0.12816637  0.54545571  0.10287325    -0.18500
C328        C  0.12895954  0.52479740  0.13244141     0.03900
C329        C  0.15641463  0.50680372  0.13590442     0.18100
C330        C  0.18050545  0.50799658  0.10926705    -0.19900
C331        C  0.15958812  0.48736110  0.16569859    -0.21200
C332        C  0.13578879  0.48493113  0.19200503    -0.19700
C333        C  0.10770352  0.50100488  0.18841063     0.19500
C334        C  0.10359355  0.52099007  0.15851802     0.01600
C335        C  0.07392892  0.53535166  0.15556683    -0.14500
C336        C  0.04911548  0.52915913  0.18056068    -0.12200
C337        C  0.05327893  0.50908222  0.20975726     0.01100
C338        C  0.08331449  0.49627026  0.21413451    -0.24300
H339        H  0.15141724  0.56260609  0.05428040     0.09200
H340        H  0.10873300  0.56060708  0.09910109     0.12700
H341        H  0.20082139  0.49344054  0.11160201     0.11400
H342        H  0.18062728  0.47387651  0.16865436     0.12600
H343        H  0.13894656  0.46957676  0.21473046     0.11700
H344        H  0.06881337  0.55051438  0.13339235     0.08700
H345        H  0.02640329  0.53951063  0.17618447     0.12000
H346        H  0.08784366  0.48184057  0.23734294     0.13900
C347        C  0.31581622  0.52218841  0.08100987    -0.01600
C348        C  0.31078162  0.50302638  0.11096632    -0.09600
C349        C  0.33389608  0.50041590  0.13796637    -0.18500
C350        C  0.36340104  0.51644175  0.13534017     0.03900
C351        C  0.36852655  0.53571572  0.10463314     0.18100
C352        C  0.34445952  0.53898522  0.07827074    -0.19900
C353        C  0.39798280  0.55079784  0.09987320    -0.21200
C354        C  0.42278389  0.54648535  0.12440439    -0.19700
C355        C  0.41848571  0.52765210  0.15489919     0.19500
C356        C  0.38838482  0.51312113  0.16134679     0.01600
C357        C  0.38462825  0.99566709  0.19345394    -0.14500
C358        C  0.41010189  0.99138779  0.21696540    -0.12200
C359        C  0.44041870  0.50404985  0.20940556     0.01100
C360        C  0.44420485  0.52287018  0.17874404    -0.24300
H361        H  0.28878220  0.98982869  0.11339386     0.09200
H362        H  0.32830382  0.98484331  0.15982397     0.12700
H363        H  0.34857586  0.55347739  0.05471638     0.11400
H364        H  0.40213619  0.56544903  0.07649595     0.12600
H365        H  0.44552733  0.55789431  0.11941830     0.11700
H366        H  0.36223457  0.98517910  0.20140886     0.08700
H367        H  0.40584150  0.97801128  0.24136793     0.12000
H368        H  0.46732061  0.53311793  0.17274807     0.13900
C369        C  0.49643136  0.81144581  0.42028369    -0.01600
C370        C  0.46751867  0.82548472  0.41346878    -0.09600
C371        C  0.46611394  0.84988543  0.38939468    -0.18500
C372        C  0.49379626  0.86111666  0.37127951     0.03900
C373        C  0.02289170  0.84617167  0.37745771     0.18100
C374        C  0.02395417  0.82173177  0.40177529    -0.19900
C375        C  0.05090085  0.85594074  0.35979438    -0.21200
C376        C  0.05079777  0.88052613  0.33625702    -0.19700
C377        C  0.02273886  0.89612118  0.33004640     0.19500
C378        C  0.49381286  0.88672458  0.34749307     0.01600
C379        C  0.46647990  0.90391743  0.34111187    -0.14500
C380        C  0.46789025  0.92930235  0.31849862    -0.12200
C381        C  0.49624955  0.93823603  0.30061677     0.01100
C382        C  0.02373967  0.92154224  0.30712523    -0.24300
H383        H  0.44588630  0.81794194  0.42730357     0.09200
H384        H  0.44303513  0.85950268  0.38569509     0.12700
H385        H  0.04644536  0.81094131  0.40667861     0.11400
H386        H  0.07310960  0.84457989  0.36436407     0.12600
H387        H  0.07294304  0.88760433  0.32312196     0.11700
H388        H  0.44378042  0.89876204  0.35377359     0.08700
H389        H  0.44657893  0.94232051  0.31523996     0.12000
H390        H  0.04651449  0.92870882  0.29592017     0.13900
C391        C  0.49538649  0.67746072  0.42397186    -0.01600
C392        C  0.46826335  0.65839263  0.42362368    -0.09600
C393        C  0.46576816  0.63420187  0.39914293    -0.18500
C394        C  0.49040842  0.62834910  0.37376168     0.03900
C395        C  0.01726291  0.64859192  0.37298076     0.18100
C396        C  0.01969040  0.67261957  0.39823147    -0.19900
C397        C  0.04165792  0.64454437  0.34730528    -0.21200
C398        C  0.04042722  0.62030992  0.32293660    -0.19700
C399        C  0.01510149  0.59914145  0.32412217     0.19500
C400        C  0.48964143  0.60289706  0.34954523     0.01600
C401        C  0.46518295  0.58032805  0.35056807    -0.14500
C402        C  0.46661500  0.55469879  0.32839326    -0.12200
C403        C  0.99191411  0.55096957  0.30388484     0.01100
C404        C  0.01565213  0.57359637  0.30106289    -0.24300
H405        H  0.44901383  0.66182138  0.44291900     0.09200
H406        H  0.44421061  0.62054771  0.40079932     0.12700
H407        H  0.04049875  0.68763917  0.39781503     0.11400
H408        H  0.06199546  0.66010169  0.34626352     0.12600
H409        H  0.05986704  0.61765969  0.30366888     0.11700
H410        H  0.44521468  0.58121164  0.36911261     0.08700
H411        H  0.44811211  0.53728749  0.33085162     0.12000
H412        H  0.03544183  0.57046722  0.28236178     0.13900
C413        C  0.00633465  0.81699919  0.57344134    -0.01600
C414        C  0.03389697  0.83516719  0.57751169    -0.09600
C415        C  0.03368417  0.86100583  0.59965153    -0.18500
C416        C  0.50572717  0.86938820  0.61861947     0.03900
C417        C  0.47813855  0.85035700  0.61498478     0.18100
C418        C  0.47866753  0.82467251  0.59259239    -0.19900
C419        C  0.45001615  0.85704070  0.63360457    -0.21200
C420        C  0.44869824  0.88217184  0.65622707    -0.19700
C421        C  0.47537759  0.90140617  0.66048222     0.19500
C422        C  0.50412187  0.89567076  0.64129812     0.01600
C423        C  0.02977598  0.91662402  0.64545874    -0.14500
C424        C  0.02732923  0.94140466  0.66895177    -0.12200
C425        C  0.99954309  0.94606548  0.68955527     0.01100
C426        C  0.47330261  0.92633677  0.68401579    -0.24300
H427        H  0.05557179  0.82972049  0.56300899     0.09200
H428        H  0.05574304  0.87389096  0.60146997     0.12700
H429        H  0.45724895  0.81064002  0.58989633     0.11400
H430        H  0.42892241  0.84259127  0.63086206     0.12600
H431        H  0.42663323  0.88654804  0.67058337     0.11700
H432        H  0.05198954  0.91458615  0.63088807     0.08700
H433        H  0.04756843  0.95693925  0.67145810     0.12000
H434        H  0.45076095  0.93013308  0.69724557     0.13900
C435        C  0.50509136  0.55838780  0.70278328    -0.01600
C436        C  0.48272711  0.58067529  0.70896285    -0.09600
C437        C  0.48403747  0.60753854  0.68873979    -0.18500
C438        C  0.00792673  0.61264898  0.66166849     0.03900
C439        C  0.03205030  0.59085316  0.65804933     0.18100
C440        C  0.03034146  0.56408213  0.67842081    -0.19900
C441        C  0.05699205  0.59520676  0.63295192    -0.21200
C442        C  0.05778868  0.62017447  0.60997888    -0.19700
C443        C  0.03332031  0.64103979  0.61106415     0.19500
C444        C  0.00817850  0.63782651  0.63716926     0.01600
C445        C  0.48357445  0.65904677  0.63630675    -0.14500
C446        C  0.48323092  0.68154654  0.60954396    -0.12200
C447        C  0.50769667  0.68413716  0.58346512     0.01100
C448        C  0.03317358  0.66438513  0.58507656    -0.24300
H449        H  0.46327448  0.57664219  0.72805230     0.09200
H450        H  0.46563026  0.62349779  0.69420824     0.12700
H451        H  0.04801095  0.54690719  0.67424652     0.11400
H452        H  0.07563929  0.57880625  0.63047783     0.12600
H453        H  0.07707656  0.62257705  0.59029486     0.11700
H454        H  0.46369257  0.65822595  0.65505650     0.08700
H455        H  0.46349863  0.69685662  0.60904101     0.12000
H456        H  0.05215797  0.66622207  0.56490949     0.13900
O457        O  0.53114161  0.28070381  0.53447030    -0.73300
O458        O  0.52537271  0.21356468  0.45965472    -0.74300
O459        O  0.52547805  0.27772167  0.45754635    -0.62900
O460        O  0.53127281  0.21611756  0.53752386    -0.71300
O461        O  0.97867175  0.21581068  0.54367702    -0.70800
O462        O  0.97283203  0.27627887  0.46257367    -0.62100
O463        O  0.97283223  0.21203906  0.46631307    -0.74600
O464        O  0.97846406  0.27931299  0.53911930    -0.73400
Cu465      Cu  0.53020164  0.24697454  0.49712386     1.04600
Cu466      Cu  0.97392103  0.24573423  0.50306898     1.04300
C467        C  0.50542401  0.29099307  0.54800250     0.92900
C468        C  0.99805728  0.20223751  0.45117645     0.92100
C469        C  0.99830348  0.28714168  0.44787070     0.84200
C470        C  0.50586105  0.20651268  0.55355938     0.90500
C471        C  0.99702019  0.46726082  0.27806969     0.86200
C472        C  0.96889268  0.46982942  0.25186008    -0.54100
C473        C  0.96777392  0.99678790  0.23350639     0.09100
C474        C  0.99624159  0.01854506  0.24236372     0.20000
C475        C  0.52607580  0.47299102  0.25317126    -0.54800
C476        C  0.52636243  0.99996406  0.23482584     0.09200
C477        C  0.99538015  0.99522228  0.30269686    -0.54300
C478        C  0.49492248  0.02194050  0.28429466     0.09700
H479        H  0.95130918  0.45166614  0.24831438     0.14300
H480        H  0.99559747  0.04062059  0.22811764     0.00000
H481        H  0.54386956  0.45621310  0.24831385     0.14600
H482        H  0.99433056  0.99393476  0.33239788     0.14400
C483        C  0.49866873  0.47282968  0.71596757     0.86200
C484        C  0.52752947  0.47440348  0.74162045    -0.54100
C485        C  0.52881722  0.99936215  0.76392025     0.09100
C486        C  0.50014652  0.02021726  0.75918283     0.20000
C487        C  0.96998109  0.47463198  0.74213193    -0.54800
C488        C  0.97071209  0.99908173  0.76498916     0.09200
C489        C  0.49961839  0.00304663  0.69572817    -0.54300
C490        C  0.00051295  0.02773093  0.71805783     0.09700
H491        H  0.54540607  0.45709460  0.74193676     0.14300
H492        H  0.50081564  0.04053704  0.77705540     0.00000
H493        H  0.95106374  0.45768427  0.74413424     0.14600
H494        H  0.50042528  0.00473489  0.66604728     0.14400
O495        O  0.71562617  0.05076132  0.03723123    -0.73300
O496        O  0.78379378  0.04418297  0.95925994    -0.74300
O497        O  0.71581529  0.04719474  0.95967663    -0.62500
O498        O  0.78398788  0.04780375  0.03723019    -0.71300
O499        O  0.77886869  0.49786775  0.04128676    -0.70800
O500        O  0.71367623  0.49701409  0.96179771    -0.62100
O501        O  0.78070521  0.49426621  0.96383960    -0.74600
O502        O  0.71219602  0.50065279  0.03954779    -0.73400
Cu503      Cu  0.74995138  0.04930868  0.99822359     1.04600
Cu504      Cu  0.74620896  0.49577622  0.00169015     1.04300
C505        C  0.70324324  0.02647752  0.05062783     0.92900
C506        C  0.79314356  0.01805658  0.94944345     0.92100
C507        C  0.70429531  0.02185698  0.94841903     0.84200
C508        C  0.79182828  0.02278546  0.05174176     0.90500
C509        C  0.55594835  0.00554632  0.78913551    -0.01600
C510        C  0.58655987  0.99610202  0.77974742    -0.09600
C511        C  0.61192621  0.99985927  0.80391245    -0.18500
C512        C  0.60761724  0.01344690  0.83853886     0.03900
C513        C  0.57704090  0.02471872  0.84711834     0.18100
C514        C  0.55152124  0.02045270  0.82261946    -0.19900
C515        C  0.57207310  0.03987023  0.88027141    -0.21200
C516        C  0.59677236  0.04383882  0.90526055    -0.19700
C517        C  0.62676259  0.03190040  0.89824112     0.19500
C518        C  0.63250541  0.01614156  0.86495700     0.01600
C519        C  0.66254686  0.00282006  0.86014575    -0.14500
C520        C  0.68573075  0.00494174  0.88732835    -0.12200
C521        C  0.68011989  0.02104236  0.91953179     0.01100
C522        C  0.65083719  0.03485268  0.92475694    -0.24300
H523        H  0.59109342  0.98574720  0.75340866     0.09200
H524        H  0.63468276  0.99214388  0.79449863     0.12700
H525        H  0.52804917  0.02804934  0.83016232     0.11400
H526        H  0.54892252  0.04875010  0.88691127     0.12600
H527        H  0.59216601  0.05571330  0.93065304     0.11700
H528        H  0.66851686  0.98977791  0.83625070     0.08700
H529        H  0.70824490  0.99394337  0.88319108     0.12000
H530        H  0.64638839  0.04683375  0.95014475     0.13900
C531        C  0.94654798  0.00240943  0.79447581    -0.01600
C532        C  0.93548678  0.47670879  0.81337850    -0.09600
C533        C  0.91073563  0.47834297  0.83868184    -0.18500
C534        C  0.89602579  0.00600296  0.84618965     0.03900
C535        C  0.90839284  0.03244321  0.82846090     0.18100
C536        C  0.93347584  0.03044142  0.80280796    -0.19900
C537        C  0.89544117  0.06060469  0.83629003    -0.21200
C538        C  0.87062446  0.06309245  0.86148408    -0.19700
C539        C  0.85762641  0.03739943  0.87889825     0.19500
C540        C  0.86977143  0.00840244  0.87095458     0.01600
C541        C  0.85488219  0.48303298  0.88783119    -0.14500
C542        C  0.82992191  0.48639167  0.91266545    -0.12200
C543        C  0.81877094  0.01505193  0.92165605     0.01100
C544        C  0.83254473  0.04049995  0.90426191    -0.24300
H545        H  0.94599561  0.45494630  0.80846746     0.09200
H546        H  0.90384750  0.45749868  0.85206078     0.12700
H547        H  0.94215045  0.05050848  0.78857596     0.11400
H548        H  0.90471539  0.08089196  0.82302035     0.12600
H549        H  0.86137894  0.08527254  0.86720173     0.11700
H550        H  0.86175094  0.46017714  0.88226653     0.08700
H551        H  0.81948161  0.46626311  0.92515270     0.12000
H552        H  0.82383870  0.06279627  0.91052957     0.13900
C553        C  0.67873570  0.02770781  0.07955221    -0.01600
C554        C  0.65294539  0.04703868  0.07702517    -0.09600
C555        C  0.62814836  0.04546389  0.10287355    -0.18500
C556        C  0.62894354  0.02481338  0.13244975     0.03900
C557        C  0.65640454  0.00682914  0.13592491     0.18100
C558        C  0.68049992  0.00802317  0.10929259    -0.19900
C559        C  0.65957962  0.98739422  0.16572616    -0.21200
C560        C  0.63577651  0.98496226  0.19202783    -0.19700
C561        C  0.60768630  0.00102663  0.18842256     0.19500
C562        C  0.60357441  0.02100451  0.15852299     0.01600
C563        C  0.57390560  0.03535771  0.15556299    -0.14500
C564        C  0.54909084  0.02916430  0.18055567    -0.12200
C565        C  0.55325652  0.00909399  0.20975867     0.01100
C566        C  0.58329500  0.99629001  0.21414343    -0.24300
H567        H  0.65140175  0.06260919  0.05427912     0.09200
H568        H  0.60870970  0.06060751  0.09909117     0.12700
H569        H  0.70082029  0.99347372  0.11163720     0.11400
H570        H  0.68062305  0.97391691  0.16869114     0.12600
H571        H  0.63893590  0.96961377  0.21475877     0.11700
H572        H  0.56878874  0.05051496  0.13338341     0.08700
H573        H  0.52637619  0.03950976  0.17617431     0.12000
H574        H  0.58782481  0.98186535  0.23735642     0.13900
C575        C  0.81581776  0.02221637  0.08103782    -0.01600
C576        C  0.81078497  0.00305242  0.11099284    -0.09600
C577        C  0.83390247  0.00043694  0.13798831    -0.18500
C578        C  0.86340901  0.01645960  0.13535903     0.03900
C579        C  0.86853139  0.03573864  0.10465595     0.18100
C580        C  0.84446129  0.03901292  0.07829788    -0.19900
C581        C  0.89798802  0.05081983  0.09989452    -0.21200
C582        C  0.92279258  0.04650075  0.12441929    -0.19700
C583        C  0.91849810  0.02766082  0.15490874     0.19500
C584        C  0.88839716  0.01313060  0.16135828     0.01600
C585        C  0.88464570  0.49567163  0.19346089    -0.14500
C586        C  0.91012257  0.49138398  0.21696475    -0.12200
C587        C  0.94043815  0.00404479  0.20940265     0.01100
C588        C  0.94422074  0.02287183  0.17874645    -0.24300
H589        H  0.78878814  0.48985815  0.11342064     0.09200
H590        H  0.82831285  0.48486556  0.15984411     0.12700
H591        H  0.84857614  0.05350704  0.05474498     0.11400
H592        H  0.90213897  0.06547529  0.07652068     0.12600
H593        H  0.94553603  0.05790934  0.11943195     0.11700
H594        H  0.86225290  0.48518241  0.20141657     0.08700
H595        H  0.90586434  0.47800153  0.24136288     0.12000
H596        H  0.96733602  0.03312024  0.17274944     0.13900
C597        C  0.99645311  0.31144313  0.42028523    -0.01600
C598        C  0.96753966  0.32547935  0.41346627    -0.09600
C599        C  0.96613490  0.34987943  0.38939189    -0.18500
C600        C  0.99381801  0.36111293  0.37128066     0.03900
C601        C  0.52286424  0.34617297  0.37745792     0.18100
C602        C  0.52392631  0.32173324  0.40177577    -0.19900
C603        C  0.55087228  0.35593720  0.35978853    -0.21200
C604        C  0.55076991  0.38052181  0.33624996    -0.19700
C605        C  0.52271312  0.39612166  0.33004492     0.19500
C606        C  0.99383380  0.38671939  0.34749253     0.01600
C607        C  0.96649820  0.40390652  0.34110295    -0.14500
C608        C  0.96790748  0.42929018  0.31848794    -0.12200
C609        C  0.99626845  0.43822788  0.30061273     0.01100
C610        C  0.52371525  0.42154220  0.30712260    -0.24300
H611        H  0.94590628  0.31793436  0.42729730     0.09200
H612        H  0.94305532  0.35949427  0.38568916     0.12700
H613        H  0.54641656  0.31093979  0.40667487     0.11400
H614        H  0.57307965  0.34457285  0.36435402     0.12600
H615        H  0.57291429  0.38759586  0.32310986     0.11700
H616        H  0.94379707  0.39874746  0.35375875     0.08700
H617        H  0.94659408  0.44230425  0.31522312     0.12000
H618        H  0.54648935  0.42870364  0.29591123     0.13900
C619        C  0.99539287  0.17745959  0.42395415    -0.01600
C620        C  0.96826337  0.15839992  0.42359283    -0.09600
C621        C  0.96576983  0.13420894  0.39911231    -0.18500
C622        C  0.99041854  0.12834752  0.37374524     0.03900
C623        C  0.51724427  0.14860031  0.37299160     0.18100
C624        C  0.51967366  0.17262755  0.39824336    -0.19900
C625        C  0.54163181  0.14455972  0.34730468    -0.21200
C626        C  0.54039860  0.12032694  0.32293325    -0.19700
C627        C  0.51507789  0.09915319  0.32412679     0.19500
C628        C  0.98965396  0.10289370  0.34953191     0.01600
C629        C  0.96518944  0.08033021  0.35054563    -0.14500
C630        C  0.96662322  0.05469888  0.32837447    -0.12200
C631        C  0.49189381  0.05097844  0.30389213     0.01100
C632        C  0.51562643  0.07361011  0.30106336    -0.24300
H633        H  0.94900771  0.16183494  0.44287815     0.09200
H634        H  0.94420719  0.12056122  0.40075782     0.12700
H635        H  0.54047777  0.18765239  0.39781883     0.11400
H636        H  0.56196538  0.16012147  0.34625565     0.12600
H637        H  0.55983267  0.11768246  0.30365649     0.11700
H638        H  0.94521487  0.08121967  0.36908061     0.08700
H639        H  0.94811538  0.03729160  0.33082541     0.12000
H640        H  0.53541106  0.07048625  0.28235368     0.13900
C641        C  0.50631136  0.31702060  0.57343966    -0.01600
C642        C  0.53387631  0.33518469  0.57751052    -0.09600
C643        C  0.53366615  0.36102608  0.59964506    -0.18500
C644        C  0.00574050  0.36936462  0.61863022     0.03900
C645        C  0.97815626  0.35032693  0.61500054     0.18100
C646        C  0.97868773  0.32464448  0.59260550    -0.19900
C647        C  0.95003492  0.35700254  0.63362685    -0.21200
C648        C  0.94871295  0.38213307  0.65624941    -0.19700
C649        C  0.97538701  0.40137493  0.66049828     0.19500
C650        C  0.00413095  0.39564654  0.64130977     0.01600
C651        C  0.52976782  0.41664700  0.64544636    -0.14500
C652        C  0.52732798  0.44142595  0.66894284    -0.12200
C653        C  0.49954367  0.44609096  0.68954748     0.01100
C654        C  0.97330626  0.42630669  0.68402912    -0.24300
H655        H  0.55555197  0.32973217  0.56301304     0.09200
H656        H  0.55572761  0.37390691  0.60146477     0.12700
H657        H  0.95727205  0.31060737  0.58991324     0.11400
H658        H  0.92894475  0.34254776  0.63088832     0.12600
H659        H  0.92664847  0.38650353  0.67060967     0.11700
H660        H  0.55198073  0.41460530  0.63087543     0.08700
H661        H  0.54757143  0.45695519  0.67145180     0.12000
H662        H  0.95076501  0.43009627  0.69726289     0.13900
C663        C  0.00506688  0.05836539  0.70276383    -0.01600
C664        C  0.98268844  0.08064331  0.70892343    -0.09600
C665        C  0.98399755  0.10750495  0.68869806    -0.18500
C666        C  0.50794400  0.11267024  0.66169044     0.03900
C667        C  0.53205868  0.09086732  0.65805476     0.18100
C668        C  0.53035073  0.06409570  0.67842472    -0.19900
C669        C  0.55698945  0.09521376  0.63294153    -0.21200
C670        C  0.55778255  0.12018106  0.60996821    -0.19700
C671        C  0.53332180  0.14105379  0.61107012     0.19500
C672        C  0.50819247  0.13784868  0.63719234     0.01600
C673        C  0.98354155  0.15901001  0.63626288    -0.14500
C674        C  0.98320589  0.18151196  0.60950311    -0.12200
C675        C  0.00768847  0.18411606  0.58344664     0.01100
C676        C  0.53316928  0.16439817  0.58508182    -0.24300
H677        H  0.96322722  0.07660378  0.72799960     0.09200
H678        H  0.96557995  0.12345667  0.69415170     0.12700
H679        H  0.54801314  0.04691611  0.67423810     0.11400
H680        H  0.57562983  0.07880746  0.63045454     0.12600
H681        H  0.57706095  0.12257752  0.59027102     0.11700
H682        H  0.96364639  0.15817856  0.65499359     0.08700
H683        H  0.96346619  0.19681307  0.60898488     0.12000
H684        H  0.55214341  0.16622829  0.56490127     0.13900
O685        O  0.53114676  0.78068575  0.53453722    -0.73300
O686        O  0.52536956  0.71356304  0.45969865    -0.74300
O687        O  0.52548421  0.77772258  0.45761327    -0.62900
O688        O  0.53126872  0.71609839  0.53757033    -0.71300
O689        O  0.97868152  0.71582490  0.54362749    -0.70800
O690        O  0.97283129  0.77627186  0.46250191    -0.62100
O691        O  0.97284036  0.71203576  0.46626594    -0.74600
O692        O  0.97846444  0.77932535  0.53904649    -0.73400
Cu693      Cu  0.53020256  0.74696462  0.49717993     1.04600
Cu694      Cu  0.97392546  0.74573828  0.50300884     1.04300
C695        C  0.50543073  0.79097588  0.54807242     0.92900
C696        C  0.99806633  0.70223401  0.45113210     0.92100
C697        C  0.99830116  0.78713280  0.44779353     0.84200
C698        C  0.50585575  0.70649358  0.55360353     0.90500
C699        C  0.99703091  0.96728667  0.27805421     0.86200
C700        C  0.96890503  0.96985772  0.25184398    -0.54100
C701        C  0.96776323  0.49675698  0.23351477     0.09100
C702        C  0.99623385  0.51851255  0.24236615     0.20000
C703        C  0.52606572  0.97296346  0.25318440    -0.54800
C704        C  0.52637392  0.49999458  0.23481912     0.09200
C705        C  0.99537389  0.49520060  0.30270459    -0.54300
C706        C  0.49493115  0.52196375  0.28429329     0.09700
H707        H  0.95132134  0.95169502  0.24829328     0.14300
H708        H  0.99559267  0.54058684  0.22811742     0.00000
H709        H  0.54386160  0.95618593  0.24833351     0.14600
H710        H  0.99432656  0.49391900  0.33240615     0.14400
C711        C  0.49867339  0.97286208  0.71595893     0.86200
C712        C  0.52753355  0.97443819  0.74161209    -0.54100
C713        C  0.52881151  0.49932417  0.76393444     0.09100
C714        C  0.50013849  0.52017770  0.75920223     0.20000
C715        C  0.96997796  0.97458680  0.74214462    -0.54800
C716        C  0.97071902  0.49912828  0.76497354     0.09200
C717        C  0.49961039  0.50301745  0.69574448    -0.54300
C718        C  0.00052618  0.52776800  0.71803777     0.09700
H719        H  0.54540856  0.95712783  0.74193373     0.14300
H720        H  0.50080560  0.54049521  0.77707849     0.00000
H721        H  0.95106440  0.95763463  0.74414437     0.14600
H722        H  0.50041694  0.50471074  0.66606395     0.14400
O723        O  0.71563664  0.55079330  0.03721837    -0.73300
O724        O  0.78380545  0.54421094  0.95925033    -0.74300
O725        O  0.71582742  0.54722311  0.95966209    -0.62500
O726        O  0.78399856  0.54783345  0.03722218    -0.71300
O727        O  0.77885928  0.99783806  0.04129896    -0.70800
O728        O  0.71366407  0.99698561  0.96180992    -0.62100
O729        O  0.78069437  0.99423842  0.96385177    -0.74600
O730        O  0.71218555  0.00062070  0.03956046    -0.73400
Cu731      Cu  0.74996281  0.54933831  0.99821212     1.04600
Cu732      Cu  0.74619818  0.99574651  0.00170232     1.04300
C733        C  0.70325380  0.52650968  0.05061541     0.92900
C734        C  0.79315404  0.51808473  0.94943178     0.92100
C735        C  0.70430817  0.52188478  0.94840473     0.84200
C736        C  0.79183693  0.52281427  0.05173360     0.90500
C737        C  0.55594438  0.50550996  0.78914771    -0.01600
C738        C  0.58655614  0.49606613  0.77975918    -0.09600
C739        C  0.61192553  0.49983385  0.80391849    -0.18500
C740        C  0.60761994  0.51343241  0.83853932     0.03900
C741        C  0.57704196  0.52469955  0.84712058     0.18100
C742        C  0.55151947  0.52042266  0.82262799    -0.19900
C743        C  0.57207532  0.53985836  0.88026893    -0.21200
C744        C  0.59677721  0.54383870  0.90525214    -0.19700
C745        C  0.62677001  0.53190669  0.89823095     0.19500
C746        C  0.63251264  0.51614210  0.86495063     0.01600
C747        C  0.66255899  0.50283076  0.86013667    -0.14500
C748        C  0.68574602  0.50496420  0.88731495    -0.12200
C749        C  0.68013353  0.52106722  0.91951637     0.01100
C750        C  0.65084721  0.53487043  0.92474229    -0.24300
H751        H  0.59108838  0.48570547  0.75342360     0.09200
H752        H  0.63468172  0.49211804  0.79450416     0.12700
H753        H  0.52804725  0.52801764  0.83017265     0.11400
H754        H  0.54892331  0.54873450  0.88690997     0.12600
H755        H  0.59217121  0.55571782  0.93064151     0.11700
H756        H  0.66853094  0.48978749  0.83624326     0.08700
H757        H  0.70826319  0.49397136  0.88317697     0.12000
H758        H  0.64639731  0.54685346  0.95012846     0.13900
C759        C  0.94655835  0.50245549  0.79446394    -0.01600
C760        C  0.93547558  0.97666443  0.81339264    -0.09600
C761        C  0.91072614  0.97830187  0.83869833    -0.18500
C762        C  0.89603416  0.50604280  0.84617515     0.03900
C763        C  0.90840337  0.53248555  0.82845342     0.18100
C764        C  0.93348667  0.53048673  0.80280032    -0.19900
C765        C  0.89545378  0.56064641  0.83629033    -0.21200
C766        C  0.87063780  0.56313100  0.86148585    -0.19700
C767        C  0.85763685  0.53743518  0.87889134     0.19500
C768        C  0.86977796  0.50843871  0.87093760     0.01600
C769        C  0.85488129  0.98299970  0.88786053    -0.14500
C770        C  0.82992030  0.98636143  0.91269292    -0.12200
C771        C  0.81877907  0.51508186  0.92164162     0.01100
C772        C  0.83255634  0.54053247  0.90425661    -0.24300
H773        H  0.94598335  0.95490128  0.80848279     0.09200
H774        H  0.90383765  0.95745865  0.85207921     0.12700
H775        H  0.94216171  0.55055525  0.78857160     0.11400
H776        H  0.90472986  0.58093570  0.82302677     0.12600
H777        H  0.86139477  0.58531078  0.86721105     0.11700
H778        H  0.86175529  0.96014355  0.88230799     0.08700
H779        H  0.81948452  0.96623469  0.92518917     0.12000
H780        H  0.82385429  0.56282859  0.91053319     0.13900
C781        C  0.67874711  0.52773959  0.07954134    -0.01600
C782        C  0.65296366  0.54707988  0.07702525    -0.09600
C783        C  0.62816662  0.54550397  0.10287403    -0.18500
C784        C  0.62895527  0.52484285  0.13243982     0.03900
C785        C  0.65641023  0.50684912  0.13590493     0.18100
C786        C  0.68050524  0.50804482  0.10927245    -0.19900
C787        C  0.65957984  0.48740321  0.16569643    -0.21200
C788        C  0.63577789  0.48497108  0.19199930    -0.19700
C789        C  0.60769355  0.50104610  0.18840425     0.19500
C790        C  0.60358597  0.52103324  0.15851305     0.01600
C791        C  0.57392117  0.53539509  0.15556139    -0.14500
C792        C  0.54910636  0.52920237  0.18055497    -0.12200
C793        C  0.55326853  0.50912459  0.20975134     0.01100
C794        C  0.58330381  0.49631153  0.21412741    -0.24300
H795        H  0.65142494  0.56265883  0.05428716     0.09200
H796        H  0.60873318  0.56065518  0.09910068     0.12700
H797        H  0.70082066  0.49348840  0.11160968     0.11400
H798        H  0.68061848  0.47391810  0.16865341     0.12600
H799        H  0.63893344  0.46961465  0.21472317     0.11700
H800        H  0.56880744  0.55055887  0.13338726     0.08700
H801        H  0.52639449  0.53955493  0.17617985     0.12000
H802        H  0.58783275  0.48188140  0.23733550     0.13900
C803        C  0.81582092  0.52224101  0.08103629    -0.01600
C804        C  0.81078843  0.50305931  0.11097495    -0.09600
C805        C  0.83390226  0.50043290  0.13797217    -0.18500
C806        C  0.86340542  0.51646295  0.13536210     0.03900
C807        C  0.86852662  0.53576374  0.10467854     0.18100
C808        C  0.84445972  0.53904786  0.07831794    -0.19900
C809        C  0.89797969  0.55085605  0.09993787    -0.21200
C810        C  0.92278232  0.54652581  0.12446225    -0.19700
C811        C  0.91848945  0.52766239  0.15493096     0.19500
C812        C  0.88839162  0.51312077  0.16136112     0.01600
C813        C  0.88465015  0.99570578  0.19347715    -0.14500
C814        C  0.91012930  0.99142747  0.21698039    -0.12200
C815        C  0.94042937  0.50401446  0.20940598     0.01100
C816        C  0.94421050  0.52286235  0.17876744    -0.24300
H817        H  0.78878128  0.98985847  0.11345381     0.09200
H818        H  0.82831293  0.98488395  0.15987520     0.12700
H819        H  0.84857455  0.55355700  0.05477861     0.11400
H820        H  0.90212979  0.56552896  0.07657986     0.12600
H821        H  0.94552323  0.55794390  0.11949051     0.11700
H822        H  0.86225538  0.98522807  0.20144713     0.08700
H823        H  0.90587313  0.97806067  0.24139178     0.12000
H824        H  0.96732310  0.53312118  0.17278309     0.13900
C825        C  0.99644745  0.81142571  0.42019785    -0.01600
C826        C  0.96753499  0.82546532  0.41338435    -0.09600
C827        C  0.96613044  0.84986610  0.38931111    -0.18500
C828        C  0.99381301  0.86109726  0.37119680     0.03900
C829        C  0.52287653  0.84619593  0.37754781     0.18100
C830        C  0.52393946  0.82175715  0.40186740    -0.19900
C831        C  0.55088602  0.85596591  0.35988564    -0.21200
C832        C  0.55078036  0.88054347  0.33633620    -0.19700
C833        C  0.52271856  0.89613039  0.33011233     0.19500
C834        C  0.99383219  0.88671251  0.34742260     0.01600
C835        C  0.96650174  0.90391184  0.34105332    -0.14500
C836        C  0.96791635  0.92930799  0.31845924    -0.12200
C837        C  0.99627725  0.93824669  0.30058457     0.01100
C838        C  0.52371511  0.92153996  0.30717179    -0.24300
H839        H  0.94590319  0.81792480  0.42722200     0.09200
H840        H  0.94305218  0.85948519  0.38561440     0.12700
H841        H  0.54643150  0.81096914  0.40677360     0.11400
H842        H  0.57309639  0.84460975  0.36446242     0.12600
H843        H  0.57292534  0.88762058  0.32319969     0.11700
H844        H  0.94380114  0.89875326  0.35371061     0.08700
H845        H  0.94660680  0.94233012  0.31520875     0.12000
H846        H  0.54648871  0.92870527  0.29596194     0.13900
C847        C  0.99540356  0.67745131  0.42391759    -0.01600
C848        C  0.96827055  0.65839652  0.42355499    -0.09600
C849        C  0.96577662  0.63420224  0.39908038    -0.18500
C850        C  0.99042892  0.62833216  0.37372147     0.03900
C851        C  0.51723148  0.64862188  0.37300730     0.18100
C852        C  0.51966148  0.67264506  0.39826534    -0.19900
C853        C  0.54161325  0.64459194  0.34731024    -0.21200
C854        C  0.54038131  0.62036225  0.32293406    -0.19700
C855        C  0.51506809  0.59918054  0.32413244     0.19500
C856        C  0.98966257  0.60287527  0.34951421     0.01600
C857        C  0.96519183  0.58031797  0.35052725    -0.14500
C858        C  0.96662167  0.55468434  0.32836082    -0.12200
C859        C  0.49189710  0.55099922  0.30389815     0.01100
C860        C  0.51562050  0.57363949  0.30106510    -0.24300
H861        H  0.94901177  0.66183842  0.44283414     0.09200
H862        H  0.94421057  0.62055940  0.40072393     0.12700
H863        H  0.54046182  0.68767460  0.39783772     0.11400
H864        H  0.56194190  0.66015938  0.34625738     0.12600
H865        H  0.55981145  0.61772602  0.30365013     0.11700
H866        H  0.94521475  0.58121385  0.36905791     0.08700
H867        H  0.94810887  0.53728168  0.33081074     0.12000
H868        H  0.53540205  0.57052402  0.28234880     0.13900
C869        C  0.50632202  0.81700183  0.57351202    -0.01600
C870        C  0.53388388  0.83517294  0.57756634    -0.09600
C871        C  0.53367402  0.86101932  0.59969227    -0.18500
C872        C  0.00573402  0.86936888  0.61857696     0.03900
C873        C  0.97814466  0.85034165  0.61492283     0.18100
C874        C  0.97867648  0.82466612  0.59251655    -0.19900
C875        C  0.95001884  0.85701895  0.63353922    -0.21200
C876        C  0.94869843  0.88213875  0.65617958    -0.19700
C877        C  0.97537838  0.90136874  0.66045537     0.19500
C878        C  0.00412587  0.89564097  0.64127329     0.01600
C879        C  0.52977204  0.91665684  0.64546389    -0.14500
C880        C  0.52732956  0.94144695  0.66894285    -0.12200
C881        C  0.49954734  0.94611558  0.68954975     0.01100
C882        C  0.97330000  0.92628834  0.68400595    -0.24300
H883        H  0.55555579  0.82972365  0.56305941     0.09200
H884        H  0.55573236  0.87390661  0.60149700     0.12700
H885        H  0.95725737  0.81063608  0.58980819     0.11400
H886        H  0.92892450  0.84257245  0.63078116     0.12600
H887        H  0.92663085  0.88650967  0.67053325     0.11700
H888        H  0.55198329  0.91461322  0.63089011     0.08700
H889        H  0.54756990  0.95698149  0.67143781     0.12000
H890        H  0.95075665  0.93007990  0.69723487     0.13900
C891        C  0.00508286  0.55840082  0.70273843    -0.01600
C892        C  0.98270982  0.58068319  0.70890113    -0.09600
C893        C  0.98402025  0.60754346  0.68867291    -0.18500
C894        C  0.50793404  0.61264103  0.66172287     0.03900
C895        C  0.53204942  0.59083891  0.65808625     0.18100
C896        C  0.53034228  0.56406677  0.67845476    -0.19900
C897        C  0.55697994  0.59518634  0.63297303    -0.21200
C898        C  0.55777260  0.62015430  0.61000097    -0.19700
C899        C  0.53331198  0.64102707  0.61110469     0.19500
C900        C  0.50818258  0.63782072  0.63722666     0.01600
C901        C  0.98356241  0.65904343  0.63623022    -0.14500
C902        C  0.98322472  0.68154202  0.60946628    -0.12200
C903        C  0.00770341  0.68414058  0.58340443     0.01100
C904        C  0.53316023  0.66437330  0.58511891    -0.24300
H905        H  0.96325133  0.57664824  0.72798229     0.09200
H906        H  0.96560662  0.62349874  0.69412925     0.12700
H907        H  0.54800531  0.54688787  0.67426731     0.11400
H908        H  0.57562048  0.57878029  0.63048500     0.12600
H909        H  0.57705089  0.62255162  0.59030378     0.11700
H910        H  0.96366996  0.65821590  0.65496490     0.08700
H911        H  0.96348627  0.69684462  0.60894875     0.12000
H912        H  0.55213474  0.66620465  0.56493895     0.13900
loop_ 
_geom_bond_atom_site_label_1 
_geom_bond_atom_site_label_2 
_geom_bond_distance 
_geom_bond_site_symmetry_2 
_ccdc_geom_bond_type 
O1           Cu9   2.019       .  S
O1           C11   1.279       .  A
O2           Cu9   2.019       .  S
O2          C468   1.279   1_455  A
O3           Cu9   2.000       .  S
O3          C469   1.278   1_455  A
O4           Cu9   2.013       .  S
O4           C14   1.279       .  A
O5          Cu10   2.004       .  S
O5          C470   1.277       .  A
O6          Cu10   2.007       .  S
O6           C13   1.278       .  A
O7          Cu10   2.003       .  S
O7           C12   1.278       .  A
O8          Cu10   1.989       .  S
O8          C467   1.276       .  A
Cu9        Cu466   2.372   1_455  S
Cu10       Cu465   2.372       .  S
C11         O464   1.276   1_455  A
C11         C185   1.478       .  S
C12         O458   1.279       .  A
C12         C163   1.481       .  S
C13         O459   1.278       .  A
C13         C141   1.478       .  S
C14         O461   1.277   1_455  A
C14         C675   1.477       .  S
C15          C16   1.530       .  S
C15         C249   1.530       .  S
C15         C475   1.535       .  S
C15         C153   1.526       .  S
C16          H23   1.085       .  S
C16         C245   1.370       .  D
C17          C18   1.550   1_565  S
C17         C244   1.370       .  D
C17         C131   1.491   1_565  S
C18         C478   1.539       .  S
C18         C476   1.549   1_545  S
C18          H24   1.108       .  S
C19         C471   1.535   1_455  S
C19          H25   1.080       .  S
C19         C248   1.371       .  D
C20         C474   1.549   1_465  S
C20         C247   1.371       .  D
C20         C109   1.499   1_565  S
C21         C243   1.530       .  S
C21          H26   1.087       .  S
C21         C478   1.362   1_565  D
C22         C474   1.539       .  S
C22         C477   1.362   1_545  D
C22         C175   1.477       .  S
C27          C28   1.535   1_655  S
C27         C261   1.527       .  S
C27         C487   1.538       .  S
C27         C197   1.526       .  S
C28          H35   1.086       .  S
C28         C257   1.370       .  D
C29          C30   1.545   1_565  S
C29         C256   1.370       .  D
C29          C53   1.487   1_565  S
C30         C490   1.539       .  S
C30         C488   1.543   1_445  S
C30          H36   1.110       .  S
C31         C483   1.538       .  S
C31          H37   1.081       .  S
C31         C260   1.366       .  D
C32         C486   1.543   1_565  S
C32         C259   1.366       .  D
C32          C75   1.486   1_565  S
C33         C255   1.527   1_545  S
C33          H38   1.087   1_655  S
C33         C490   1.363   1_655  D
C34         C486   1.539       .  S
C34         C489   1.363       .  D
C34         C207   1.475       .  S
O39         Cu47   2.024   1_554  S
O39          C49   1.279       .  A
O40         Cu47   2.023       .  S
O40          C50   1.280       .  A
O41         Cu47   2.013       .  S
O41          C51   1.277       .  A
O42         Cu47   2.024   1_554  S
O42          C52   1.279       .  A
O43         Cu48   1.997       .  S
O43         C280   1.277       .  A
O44         Cu48   2.003   1_556  S
O44         C279   1.277       .  A
O45         Cu48   2.000   1_556  S
O45         C278   1.278       .  A
O46         Cu48   1.999       .  S
O46         C277   1.277       .  A
Cu47       Cu276   2.374   1_546  S
Cu48       Cu275   2.374   1_554  S
C49         O274   1.277       .  A
C49          C97   1.473       .  S
C50         O273   1.278   1_545  A
C50          C87   1.484       .  S
C51         O272   1.277   1_545  A
C51          C65   1.467       .  S
C52         O271   1.277   1_545  A
C52         C119   1.473       .  S
C53          C54   1.402   1_545  A
C53          C58   1.402       .  A
C54          C55   1.392       .  A
C54          H67   1.083       .  S
C55          C56   1.412   1_565  A
C55          H68   1.077       .  S
C56          C62   1.428       .  A
C56          C57   1.422       .  A
C57          C59   1.400       .  A
C57          C58   1.408       .  A
C58          H69   1.084       .  S
C59          C60   1.392       .  A
C59          H70   1.084       .  S
C60          C61   1.400       .  A
C60          H71   1.084       .  S
C61          C62   1.423       .  A
C61          C66   1.406       .  A
C62          C63   1.416       .  A
C63          C64   1.395       .  A
C63          H72   1.077   1_545  S
C64          C65   1.396       .  A
C64          H73   1.084   1_545  S
C65          C66   1.399       .  A
C66          H74   1.085       .  S
C75          C80   1.401       .  A
C75         C304   1.402   1_545  A
C76          C77   1.391       .  A
C76         C303   1.402       .  A
C76          H89   1.083       .  S
C77         C306   1.412       .  A
C77          H90   1.077       .  S
C78          C84   1.429       .  A
C78          C79   1.424       .  A
C78         C305   1.412   1_545  A
C79          C81   1.400       .  A
C79          C80   1.411       .  A
C80          H91   1.084       .  S
C81          C82   1.393       .  A
C81          H92   1.084       .  S
C82          C83   1.401       .  A
C82          H93   1.084       .  S
C83          C84   1.421       .  A
C83          C88   1.409       .  A
C84         C313   1.414   1_545  A
C85          C86   1.394       .  A
C85         C312   1.414       .  A
C85          H94   1.077       .  S
C86         C315   1.401       .  A
C86          H95   1.083       .  S
C87          C88   1.404       .  A
C87         C314   1.401   1_545  A
C88          H96   1.084       .  S
C97          C98   1.400       .  A
C97         C102   1.397       .  A
C98          C99   1.403       .  A
C98         H111   1.083       .  S
C99         C100   1.417       .  A
C99         H112   1.078       .  S
C100        C106   1.433       .  A
C100        C101   1.423       .  A
C101        C103   1.397   1_545  A
C101        C102   1.401       .  A
C102        H113   1.085   1_545  S
C103        C104   1.386       .  A
C103        H114   1.084       .  S
C104        C105   1.399   1_565  A
C104        H115   1.084       .  S
C105        C106   1.420       .  A
C105        C110   1.399   1_545  A
C106        C107   1.417       .  A
C107        C108   1.404       .  A
C107        H116   1.078       .  S
C108        C109   1.403       .  A
C108        H117   1.081       .  S
C109        C110   1.405   1_545  A
C110        H118   1.082       .  S
C119        C120   1.397       .  A
C119        C124   1.401       .  A
C120        C121   1.393       .  A
C120        H361   1.084   1_545  S
C121        C122   1.415       .  A
C121        H362   1.077   1_545  S
C122        C128   1.428       .  A
C122        C123   1.422       .  A
C123        C125   1.401       .  A
C123        C124   1.409       .  A
C124        H135   1.084       .  S
C125        C126   1.393       .  A
C125        H136   1.084       .  S
C126        C127   1.400       .  A
C126        H137   1.084       .  S
C127        C128   1.422       .  A
C127        C132   1.410       .  A
C128        C357   1.411   1_545  A
C129        C130   1.391       .  A
C129        C356   1.411       .  A
C129        H138   1.077       .  S
C130        C359   1.403       .  A
C130        H139   1.082       .  S
C131        C132   1.403       .  A
C131        C358   1.403   1_545  A
C132        H140   1.083       .  S
H133        C348   1.084       .  S
H134        C349   1.077       .  S
C141        C142   1.401       .  A
C141        C602   1.401       .  A
C142        C143   1.396       .  A
C142        H155   1.083       .  S
C143        C144   1.415       .  A
C143        H156   1.077       .  S
C144        C150   1.429       .  A
C144        C601   1.422       .  A
C145        C147   1.398       .  A
C145        C146   1.402       .  A
C145        C600   1.422   1_455  A
C146        C597   1.401   1_455  A
C146        H157   1.084       .  S
C147        C148   1.388       .  A
C147        H158   1.084       .  S
C148        C149   1.400       .  A
C148        H159   1.084       .  S
C149        C154   1.403       .  A
C149        C606   1.421   1_455  A
C150        C151   1.413       .  A
C150        C605   1.421       .  A
C151        C152   1.395       .  A
C151        H160   1.077       .  S
C152        C153   1.404       .  A
C152        H161   1.083       .  S
C153        C610   1.407       .  A
C154        C609   1.407   1_455  A
C154        H162   1.079       .  S
C163        C164   1.400       .  A
C163        C624   1.403       .  A
C164        C165   1.395       .  A
C164        H177   1.083       .  S
C165        C166   1.415       .  A
C165        H178   1.077       .  S
C166        C172   1.430       .  A
C166        C623   1.422       .  A
C167        C169   1.400       .  A
C167        C168   1.408       .  A
C167        C622   1.422   1_455  A
C168        C619   1.403   1_455  A
C168        H179   1.084       .  S
C169        C170   1.392       .  A
C169        H180   1.084       .  S
C170        C171   1.400       .  A
C170        H181   1.084       .  S
C171        C176   1.408       .  A
C171        C628   1.424   1_455  A
C172        C173   1.415       .  A
C172        C627   1.424       .  A
C173        C174   1.394       .  A
C173        H182   1.077       .  S
C174        C631   1.398       .  A
C174        H183   1.084       .  S
C175        C176   1.398   1_655  A
C175        C630   1.398       .  A
C176        H184   1.085       .  S
C185        C186   1.401       .  A
C185        C646   1.400   1_455  A
C186        C187   1.399       .  A
C186        H199   1.083       .  S
C187        C644   1.416       .  A
C187        H200   1.078       .  S
C188        C194   1.429       .  A
C188        C189   1.421       .  A
C188        C643   1.416       .  A
C189        C191   1.398       .  A
C189        C190   1.399       .  A
C190        C641   1.400       .  A
C190        H201   1.085       .  S
C191        C192   1.386       .  A
C191        H202   1.084       .  S
C192        C193   1.399       .  A
C192        H203   1.084       .  S
C193        C194   1.421       .  A
C193        C198   1.401       .  A
C194        C651   1.413       .  A
C195        C196   1.396       .  A
C195        C650   1.413       .  A
C195        H204   1.078       .  S
C196        C197   1.405   1_455  A
C196        H205   1.083       .  S
C197        C654   1.405       .  A
C198        C653   1.405       .  A
C198        H206   1.078       .  S
C207        C208   1.396       .  A
C207        C668   1.399       .  A
C208        C209   1.400       .  A
C208        H221   1.083       .  S
C209        C666   1.419       .  A
C209        H222   1.078       .  S
C210        C216   1.430       .  A
C210        C211   1.421       .  A
C210        C665   1.419   1_455  A
C211        C213   1.399       .  A
C211        C212   1.400       .  A
C212        C663   1.399       .  A
C212        H223   1.085       .  S
C213        C214   1.388       .  A
C213        H224   1.084       .  S
C214        C215   1.399       .  A
C214        H225   1.084       .  S
C215        C216   1.424       .  A
C215        C220   1.404       .  A
C216        C673   1.414   1_455  A
C217        C218   1.397       .  A
C217        C672   1.414       .  A
C217        H226   1.077       .  S
C218        C219   1.401       .  A
C218        H227   1.083       .  S
C219        C470   1.477       .  S
C219        C676   1.399       .  A
C220        C675   1.399       .  A
C220        H228   1.085       .  S
O229       Cu237   2.019       .  S
O229        C239   1.279       .  A
O230       Cu237   2.019       .  S
O230        C696   1.279   1_455  A
O231       Cu237   2.000       .  S
O231        C697   1.278   1_455  A
O232       Cu237   2.013       .  S
O232        C242   1.279       .  A
O233       Cu238   2.004       .  S
O233        C698   1.277       .  A
O234       Cu238   2.007       .  S
O234        C241   1.278       .  A
O235       Cu238   2.004       .  S
O235        C240   1.278       .  A
O236       Cu238   1.989       .  S
O236        C695   1.276       .  A
Cu237      Cu694   2.372   1_455  S
Cu238      Cu693   2.372       .  S
C239        O692   1.276   1_455  A
C239        C413   1.478       .  S
C240        O686   1.279       .  A
C240        C391   1.481       .  S
C241        O687   1.278       .  A
C241        C369   1.478       .  S
C242        O689   1.277   1_455  A
C242        C903   1.477       .  S
C243        C244   1.530       .  S
C243        C703   1.535       .  S
C243        C381   1.526       .  S
C244        H251   1.085       .  S
C245        C246   1.550       .  S
C245        C359   1.491       .  S
C246        C706   1.539       .  S
C246        C704   1.549       .  S
C246        H252   1.108       .  S
C247        C699   1.535   1_455  S
C247        H253   1.080       .  S
C248        C702   1.549   1_455  S
C248        C337   1.499       .  S
C249        H254   1.087       .  S
C249        C706   1.362       .  D
C250        C702   1.539       .  S
C250        C705   1.362       .  D
C250        C403   1.477       .  S
C255        C256   1.535   1_655  S
C255        C715   1.538       .  S
C255        C425   1.526       .  S
C256        H263   1.086       .  S
C257        C258   1.545       .  S
C257        C281   1.487       .  S
C258        C718   1.539       .  S
C258        C716   1.543   1_455  S
C258        H264   1.110       .  S
C259        C711   1.538       .  S
C259        H265   1.081       .  S
C260        C714   1.543       .  S
C260        C303   1.486       .  S
C261        H266   1.087   1_655  S
C261        C718   1.363   1_655  D
C262        C714   1.539       .  S
C262        C717   1.363       .  D
C262        C435   1.474       .  S
O267       Cu275   2.024   1_554  S
O267        C277   1.279       .  A
O268       Cu275   2.023       .  S
O268        C278   1.280       .  A
O269       Cu275   2.013       .  S
O269        C279   1.277       .  A
O270       Cu275   2.024   1_554  S
O270        C280   1.279       .  A
O271       Cu276   1.997       .  S
O272       Cu276   2.003   1_556  S
O273       Cu276   2.000   1_556  S
O274       Cu276   1.999   1_545  S
C277        C325   1.473       .  S
C278        C315   1.484       .  S
C279        C293   1.467       .  S
C280        C347   1.473       .  S
C281        C282   1.402       .  A
C281        C286   1.402       .  A
C282        C283   1.392       .  A
C282        H295   1.083       .  S
C283        C284   1.412       .  A
C283        H296   1.077       .  S
C284        C290   1.428       .  A
C284        C285   1.422       .  A
C285        C287   1.400       .  A
C285        C286   1.408       .  A
C286        H297   1.084       .  S
C287        C288   1.392       .  A
C287        H298   1.084       .  S
C288        C289   1.400       .  A
C288        H299   1.084       .  S
C289        C290   1.423       .  A
C289        C294   1.406       .  A
C290        C291   1.416       .  A
C291        C292   1.394       .  A
C291        H300   1.077       .  S
C292        C293   1.396       .  A
C292        H301   1.084       .  S
C293        C294   1.399       .  A
C294        H302   1.085       .  S
C303        C308   1.401       .  A
C304        C305   1.391       .  A
C304        H317   1.083       .  S
C305        H318   1.077       .  S
C306        C312   1.429       .  A
C306        C307   1.424       .  A
C307        C309   1.400       .  A
C307        C308   1.411       .  A
C308        H319   1.084       .  S
C309        C310   1.393       .  A
C309        H320   1.084       .  S
C310        C311   1.401       .  A
C310        H321   1.084       .  S
C311        C312   1.421       .  A
C311        C316   1.409       .  A
C313        C314   1.394       .  A
C313        H322   1.077       .  S
C314        H323   1.083       .  S
C315        C316   1.404       .  A
C316        H324   1.084       .  S
C325        C326   1.400       .  A
C325        C330   1.397       .  A
C326        C327   1.403       .  A
C326        H339   1.083       .  S
C327        C328   1.417       .  A
C327        H340   1.078       .  S
C328        C334   1.433       .  A
C328        C329   1.423       .  A
C329        C331   1.397       .  A
C329        C330   1.401       .  A
C330        H341   1.085       .  S
C331        C332   1.386       .  A
C331        H342   1.084       .  S
C332        C333   1.399       .  A
C332        H343   1.084       .  S
C333        C334   1.420       .  A
C333        C338   1.399       .  A
C334        C335   1.417       .  A
C335        C336   1.404       .  A
C335        H344   1.078       .  S
C336        C337   1.403       .  A
C336        H345   1.081       .  S
C337        C338   1.405       .  A
C338        H346   1.082       .  S
C347        C348   1.397       .  A
C347        C352   1.401       .  A
C348        C349   1.393       .  A
C349        C350   1.415       .  A
C350        C356   1.428       .  A
C350        C351   1.422       .  A
C351        C353   1.401       .  A
C351        C352   1.409       .  A
C352        H363   1.084       .  S
C353        C354   1.393       .  A
C353        H364   1.084       .  S
C354        C355   1.400       .  A
C354        H365   1.084       .  S
C355        C356   1.422       .  A
C355        C360   1.410       .  A
C357        C358   1.391       .  A
C357        H366   1.077       .  S
C358        H367   1.082       .  S
C359        C360   1.403       .  A
C360        H368   1.083       .  S
C369        C370   1.401       .  A
C369        C830   1.401       .  A
C370        C371   1.396       .  A
C370        H383   1.083       .  S
C371        C372   1.415       .  A
C371        H384   1.077       .  S
C372        C378   1.429       .  A
C372        C829   1.422       .  A
C373        C828   1.422   1_455  A
C373        C375   1.398       .  A
C373        C374   1.402       .  A
C374        C825   1.401   1_455  A
C374        H385   1.084       .  S
C375        C376   1.388       .  A
C375        H386   1.084       .  S
C376        C377   1.400       .  A
C376        H387   1.084       .  S
C377        C834   1.421   1_455  A
C377        C382   1.403       .  A
C378        C833   1.421       .  A
C378        C379   1.413       .  A
C379        C380   1.395       .  A
C379        H388   1.077       .  S
C380        C381   1.404       .  A
C380        H389   1.083       .  S
C381        C838   1.407       .  A
C382        C837   1.407   1_455  A
C382        H390   1.079       .  S
C391        C392   1.400       .  A
C391        C852   1.403       .  A
C392        C393   1.395       .  A
C392        H405   1.083       .  S
C393        C394   1.415       .  A
C393        H406   1.077       .  S
C394        C400   1.430       .  A
C394        C851   1.422       .  A
C395        C850   1.422   1_455  A
C395        C397   1.400       .  A
C395        C396   1.408       .  A
C396        C847   1.403   1_455  A
C396        H407   1.084       .  S
C397        C398   1.392       .  A
C397        H408   1.084       .  S
C398        C399   1.400       .  A
C398        H409   1.084       .  S
C399        C856   1.424   1_455  A
C399        C404   1.408       .  A
C400        C855   1.424       .  A
C400        C401   1.415       .  A
C401        C402   1.394       .  A
C401        H410   1.077       .  S
C402        C859   1.398       .  A
C402        H411   1.084       .  S
C403        C858   1.398       .  A
C403        C404   1.398   1_655  A
C404        H412   1.085       .  S
C413        C414   1.401       .  A
C413        C874   1.400   1_455  A
C414        C415   1.399       .  A
C414        H427   1.083       .  S
C415        C872   1.416       .  A
C415        H428   1.078       .  S
C416        C871   1.416       .  A
C416        C422   1.429       .  A
C416        C417   1.421       .  A
C417        C419   1.398       .  A
C417        C418   1.399       .  A
C418        C869   1.400       .  A
C418        H429   1.085       .  S
C419        C420   1.386       .  A
C419        H430   1.084       .  S
C420        C421   1.399       .  A
C420        H431   1.084       .  S
C421        C422   1.421       .  A
C421        C426   1.401       .  A
C422        C879   1.413       .  A
C423        C878   1.413       .  A
C423        C424   1.396       .  A
C423        H432   1.078       .  S
C424        C425   1.405   1_455  A
C424        H433   1.083       .  S
C425        C882   1.405       .  A
C426        C881   1.405       .  A
C426        H434   1.078       .  S
C435        C436   1.396       .  A
C435        C896   1.399       .  A
C436        C437   1.400       .  A
C436        H449   1.083       .  S
C437        C894   1.419       .  A
C437        H450   1.078       .  S
C438        C893   1.419   1_455  A
C438        C444   1.430       .  A
C438        C439   1.421       .  A
C439        C441   1.399       .  A
C439        C440   1.400       .  A
C440        C891   1.399       .  A
C440        H451   1.085       .  S
C441        C442   1.388       .  A
C441        H452   1.084       .  S
C442        C443   1.399       .  A
C442        H453   1.084       .  S
C443        C444   1.424       .  A
C443        C448   1.404       .  A
C444        C901   1.414   1_455  A
C445        C900   1.414       .  A
C445        C446   1.397       .  A
C445        H454   1.077       .  S
C446        C447   1.401       .  A
C446        H455   1.083       .  S
C447        C698   1.477       .  S
C447        C904   1.399       .  A
C448        C903   1.399       .  A
C448        H456   1.085       .  S
O457       Cu465   2.019       .  S
O457        C467   1.279       .  A
O458       Cu465   2.019       .  S
O459       Cu465   2.000       .  S
O460       Cu465   2.013       .  S
O460        C470   1.279       .  A
O461       Cu466   2.004       .  S
O462       Cu466   2.007       .  S
O462        C469   1.278       .  A
O463       Cu466   2.004       .  S
O463        C468   1.278       .  A
O464       Cu466   1.989       .  S
C467        C641   1.478       .  S
C468        C619   1.481       .  S
C469        C597   1.478       .  S
C471        C472   1.530       .  S
C471        C705   1.530       .  S
C471        C609   1.526       .  S
C472        H479   1.085       .  S
C472        C701   1.370       .  D
C473        C474   1.550   1_565  S
C473        C700   1.370       .  D
C473        C587   1.491   1_565  S
C474        H480   1.108       .  S
C475        H481   1.080       .  S
C475        C704   1.371       .  D
C476        C703   1.371       .  D
C476        C565   1.499   1_565  S
C477        C699   1.530       .  S
C477        H482   1.087       .  S
C478        C631   1.477       .  S
C483        C484   1.535       .  S
C483        C717   1.527       .  S
C483        C653   1.526       .  S
C484        H491   1.086       .  S
C484        C713   1.370       .  D
C485        C486   1.545   1_565  S
C485        C712   1.370       .  D
C485        C509   1.487   1_565  S
C486        H492   1.110       .  S
C487        H493   1.081       .  S
C487        C716   1.366       .  D
C488        C715   1.366       .  D
C488        C531   1.486   1_565  S
C489        C711   1.527   1_545  S
C489        H494   1.087       .  S
C490        C663   1.474       .  S
O495       Cu503   2.024   1_554  S
O495        C505   1.279       .  A
O496       Cu503   2.023       .  S
O496        C506   1.280       .  A
O497       Cu503   2.013       .  S
O497        C507   1.277       .  A
O498       Cu503   2.024   1_554  S
O498        C508   1.279       .  A
O499       Cu504   1.997       .  S
O499        C736   1.277       .  A
O500       Cu504   2.003   1_556  S
O500        C735   1.277       .  A
O501       Cu504   2.000   1_556  S
O501        C734   1.278       .  A
O502       Cu504   1.999       .  S
O502        C733   1.277       .  A
Cu503      Cu732   2.374   1_546  S
Cu504      Cu731   2.374   1_554  S
C505        O730   1.277       .  A
C505        C553   1.473       .  S
C506        O729   1.278   1_545  A
C506        C543   1.484       .  S
C507        O728   1.277   1_545  A
C507        C521   1.467       .  S
C508        O727   1.277   1_545  A
C508        C575   1.473       .  S
C509        C510   1.402   1_545  A
C509        C514   1.402       .  A
C510        C511   1.392       .  A
C510        H523   1.083       .  S
C511        C512   1.412   1_565  A
C511        H524   1.077       .  S
C512        C518   1.428       .  A
C512        C513   1.422       .  A
C513        C515   1.400       .  A
C513        C514   1.408       .  A
C514        H525   1.084       .  S
C515        C516   1.392       .  A
C515        H526   1.084       .  S
C516        C517   1.400       .  A
C516        H527   1.084       .  S
C517        C518   1.423       .  A
C517        C522   1.406       .  A
C518        C519   1.416       .  A
C519        C520   1.395       .  A
C519        H528   1.077   1_545  S
C520        C521   1.396       .  A
C520        H529   1.084   1_545  S
C521        C522   1.399       .  A
C522        H530   1.085       .  S
C531        C760   1.402   1_545  A
C531        C536   1.401       .  A
C532        C759   1.402       .  A
C532        C533   1.391       .  A
C532        H545   1.083       .  S
C533        C762   1.412       .  A
C533        H546   1.077       .  S
C534        C761   1.412   1_545  A
C534        C540   1.429       .  A
C534        C535   1.424       .  A
C535        C537   1.400       .  A
C535        C536   1.411       .  A
C536        H547   1.084       .  S
C537        C538   1.393       .  A
C537        H548   1.084       .  S
C538        C539   1.401       .  A
C538        H549   1.084       .  S
C539        C540   1.421       .  A
C539        C544   1.409       .  A
C540        C769   1.414   1_545  A
C541        C768   1.414       .  A
C541        C542   1.394       .  A
C541        H550   1.077       .  S
C542        C771   1.401       .  A
C542        H551   1.083       .  S
C543        C770   1.401   1_545  A
C543        C544   1.404       .  A
C544        H552   1.084       .  S
C553        C554   1.400       .  A
C553        C558   1.397       .  A
C554        C555   1.403       .  A
C554        H567   1.083       .  S
C555        C556   1.417       .  A
C555        H568   1.078       .  S
C556        C562   1.433       .  A
C556        C557   1.423       .  A
C557        C559   1.397   1_545  A
C557        C558   1.401       .  A
C558        H569   1.085   1_545  S
C559        C560   1.386       .  A
C559        H570   1.084       .  S
C560        C561   1.399   1_565  A
C560        H571   1.084       .  S
C561        C562   1.420       .  A
C561        C566   1.399   1_545  A
C562        C563   1.417       .  A
C563        C564   1.404       .  A
C563        H572   1.078       .  S
C564        C565   1.403       .  A
C564        H573   1.081       .  S
C565        C566   1.405   1_545  A
C566        H574   1.082       .  S
C575        C576   1.397       .  A
C575        C580   1.401       .  A
C576        C577   1.393       .  A
C576        H817   1.084   1_545  S
C577        C578   1.415       .  A
C577        H818   1.077   1_545  S
C578        C584   1.428       .  A
C578        C579   1.422       .  A
C579        C581   1.401       .  A
C579        C580   1.409       .  A
C580        H591   1.084       .  S
C581        C582   1.393       .  A
C581        H592   1.084       .  S
C582        C583   1.400       .  A
C582        H593   1.084       .  S
C583        C584   1.422       .  A
C583        C588   1.410       .  A
C584        C813   1.411   1_545  A
C585        C812   1.411       .  A
C585        C586   1.391       .  A
C585        H594   1.077       .  S
C586        C815   1.403       .  A
C586        H595   1.082       .  S
C587        C814   1.403   1_545  A
C587        C588   1.403       .  A
C588        H596   1.083       .  S
H589        C804   1.084       .  S
H590        C805   1.077       .  S
C597        C598   1.401       .  A
C598        C599   1.396       .  A
C598        H611   1.083       .  S
C599        C600   1.415       .  A
C599        H612   1.077       .  S
C600        C606   1.429       .  A
C601        C603   1.398       .  A
C601        C602   1.402       .  A
C602        H613   1.084       .  S
C603        C604   1.388       .  A
C603        H614   1.084       .  S
C604        C605   1.400       .  A
C604        H615   1.084       .  S
C605        C610   1.403       .  A
C606        C607   1.413       .  A
C607        C608   1.395       .  A
C607        H616   1.077       .  S
C608        C609   1.404       .  A
C608        H617   1.083       .  S
C610        H618   1.079       .  S
C619        C620   1.400       .  A
C620        C621   1.395       .  A
C620        H633   1.083       .  S
C621        C622   1.415       .  A
C621        H634   1.077       .  S
C622        C628   1.430       .  A
C623        C625   1.400       .  A
C623        C624   1.408       .  A
C624        H635   1.084       .  S
C625        C626   1.392       .  A
C625        H636   1.084       .  S
C626        C627   1.400       .  A
C626        H637   1.084       .  S
C627        C632   1.408       .  A
C628        C629   1.415       .  A
C629        C630   1.394       .  A
C629        H638   1.077       .  S
C630        H639   1.084       .  S
C631        C632   1.398       .  A
C632        H640   1.085       .  S
C641        C642   1.401       .  A
C642        C643   1.399       .  A
C642        H655   1.083       .  S
C643        H656   1.078       .  S
C644        C650   1.429       .  A
C644        C645   1.421   1_455  A
C645        C647   1.398       .  A
C645        C646   1.399       .  A
C646        H657   1.085       .  S
C647        C648   1.386       .  A
C647        H658   1.084       .  S
C648        C649   1.399       .  A
C648        H659   1.084       .  S
C649        C650   1.421   1_655  A
C649        C654   1.401       .  A
C651        C652   1.396       .  A
C651        H660   1.078       .  S
C652        C653   1.405       .  A
C652        H661   1.083       .  S
C654        H662   1.078       .  S
C663        C664   1.396   1_455  A
C664        C665   1.400       .  A
C664        H677   1.083       .  S
C665        H678   1.078       .  S
C666        C672   1.430       .  A
C666        C667   1.421       .  A
C667        C669   1.399       .  A
C667        C668   1.400       .  A
C668        H679   1.085       .  S
C669        C670   1.388       .  A
C669        H680   1.084       .  S
C670        C671   1.399       .  A
C670        H681   1.084       .  S
C671        C672   1.424       .  A
C671        C676   1.404       .  A
C673        C674   1.397       .  A
C673        H682   1.077       .  S
C674        C675   1.401   1_655  A
C674        H683   1.083       .  S
C676        H684   1.085       .  S
O685       Cu693   2.019       .  S
O685        C695   1.279       .  A
O686       Cu693   2.019       .  S
O687       Cu693   2.000       .  S
O688       Cu693   2.013       .  S
O688        C698   1.279       .  A
O689       Cu694   2.004       .  S
O690       Cu694   2.007       .  S
O690        C697   1.278       .  A
O691       Cu694   2.003       .  S
O691        C696   1.278       .  A
O692       Cu694   1.989       .  S
C695        C869   1.478       .  S
C696        C847   1.481       .  S
C697        C825   1.478       .  S
C699        C700   1.530       .  S
C699        C837   1.526       .  S
C700        H707   1.085       .  S
C701        C702   1.550       .  S
C701        C815   1.491       .  S
C702        H708   1.108       .  S
C703        H709   1.080       .  S
C704        C793   1.499       .  S
C705        H710   1.087       .  S
C706        C859   1.477       .  S
C711        C712   1.535       .  S
C711        C881   1.526       .  S
C712        H719   1.086       .  S
C713        C714   1.545       .  S
C713        C737   1.487       .  S
C714        H720   1.110       .  S
C715        H721   1.081       .  S
C716        C759   1.486       .  S
C717        H722   1.087       .  S
C718        C891   1.474       .  S
O723       Cu731   2.024   1_554  S
O723        C733   1.279       .  A
O724       Cu731   2.023       .  S
O724        C734   1.280       .  A
O725       Cu731   2.013       .  S
O725        C735   1.277       .  A
O726       Cu731   2.024   1_554  S
O726        C736   1.279       .  A
O727       Cu732   1.997       .  S
O728       Cu732   2.003   1_556  S
O729       Cu732   2.000   1_556  S
O730       Cu732   1.999   1_545  S
C733        C781   1.473       .  S
C734        C771   1.484       .  S
C735        C749   1.467       .  S
C736        C803   1.473       .  S
C737        C738   1.402       .  A
C737        C742   1.402       .  A
C738        C739   1.392       .  A
C738        H751   1.083       .  S
C739        C740   1.412       .  A
C739        H752   1.077       .  S
C740        C746   1.428       .  A
C740        C741   1.422       .  A
C741        C743   1.400       .  A
C741        C742   1.408       .  A
C742        H753   1.084       .  S
C743        C744   1.392       .  A
C743        H754   1.084       .  S
C744        C745   1.400       .  A
C744        H755   1.084       .  S
C745        C746   1.423       .  A
C745        C750   1.406       .  A
C746        C747   1.416       .  A
C747        C748   1.395       .  A
C747        H756   1.077       .  S
C748        C749   1.396       .  A
C748        H757   1.084       .  S
C749        C750   1.399       .  A
C750        H758   1.085       .  S
C759        C764   1.401       .  A
C760        C761   1.391       .  A
C760        H773   1.083       .  S
C761        H774   1.077       .  S
C762        C768   1.429       .  A
C762        C763   1.424       .  A
C763        C765   1.400       .  A
C763        C764   1.411       .  A
C764        H775   1.084       .  S
C765        C766   1.393       .  A
C765        H776   1.084       .  S
C766        C767   1.401       .  A
C766        H777   1.084       .  S
C767        C768   1.421       .  A
C767        C772   1.409       .  A
C769        C770   1.394       .  A
C769        H778   1.077       .  S
C770        H779   1.083       .  S
C771        C772   1.404       .  A
C772        H780   1.084       .  S
C781        C782   1.400       .  A
C781        C786   1.397       .  A
C782        C783   1.403       .  A
C782        H795   1.083       .  S
C783        C784   1.417       .  A
C783        H796   1.078       .  S
C784        C790   1.433       .  A
C784        C785   1.423       .  A
C785        C787   1.397       .  A
C785        C786   1.401       .  A
C786        H797   1.085       .  S
C787        C788   1.386       .  A
C787        H798   1.084       .  S
C788        C789   1.399       .  A
C788        H799   1.084       .  S
C789        C790   1.420       .  A
C789        C794   1.399       .  A
C790        C791   1.417       .  A
C791        C792   1.404       .  A
C791        H800   1.078       .  S
C792        C793   1.403       .  A
C792        H801   1.081       .  S
C793        C794   1.405       .  A
C794        H802   1.082       .  S
C803        C804   1.397       .  A
C803        C808   1.401       .  A
C804        C805   1.393       .  A
C805        C806   1.415       .  A
C806        C812   1.428       .  A
C806        C807   1.422       .  A
C807        C809   1.401       .  A
C807        C808   1.409       .  A
C808        H819   1.084       .  S
C809        C810   1.393       .  A
C809        H820   1.084       .  S
C810        C811   1.400       .  A
C810        H821   1.084       .  S
C811        C812   1.422       .  A
C811        C816   1.410       .  A
C813        C814   1.391       .  A
C813        H822   1.077       .  S
C814        H823   1.082       .  S
C815        C816   1.403       .  A
C816        H824   1.083       .  S
C825        C826   1.401       .  A
C826        C827   1.396       .  A
C826        H839   1.083       .  S
C827        C828   1.415       .  A
C827        H840   1.077       .  S
C828        C834   1.429       .  A
C829        C831   1.398       .  A
C829        C830   1.402       .  A
C830        H841   1.084       .  S
C831        C832   1.388       .  A
C831        H842   1.084       .  S
C832        C833   1.400       .  A
C832        H843   1.084       .  S
C833        C838   1.403       .  A
C834        C835   1.413       .  A
C835        C836   1.395       .  A
C835        H844   1.077       .  S
C836        C837   1.404       .  A
C836        H845   1.083       .  S
C838        H846   1.079       .  S
C847        C848   1.400       .  A
C848        C849   1.395       .  A
C848        H861   1.083       .  S
C849        C850   1.415       .  A
C849        H862   1.077       .  S
C850        C856   1.430       .  A
C851        C853   1.400       .  A
C851        C852   1.408       .  A
C852        H863   1.084       .  S
C853        C854   1.392       .  A
C853        H864   1.084       .  S
C854        C855   1.400       .  A
C854        H865   1.084       .  S
C855        C860   1.408       .  A
C856        C857   1.415       .  A
C857        C858   1.394       .  A
C857        H866   1.077       .  S
C858        H867   1.084       .  S
C859        C860   1.398       .  A
C860        H868   1.085       .  S
C869        C870   1.401       .  A
C870        C871   1.399       .  A
C870        H883   1.083       .  S
C871        H884   1.078       .  S
C872        C878   1.429       .  A
C872        C873   1.421   1_455  A
C873        C875   1.398       .  A
C873        C874   1.399       .  A
C874        H885   1.085       .  S
C875        C876   1.386       .  A
C875        H886   1.084       .  S
C876        C877   1.399       .  A
C876        H887   1.084       .  S
C877        C878   1.421   1_655  A
C877        C882   1.401       .  A
C879        C880   1.396       .  A
C879        H888   1.078       .  S
C880        C881   1.405       .  A
C880        H889   1.083       .  S
C882        H890   1.078       .  S
C891        C892   1.396   1_455  A
C892        C893   1.400       .  A
C892        H905   1.083       .  S
C893        H906   1.078       .  S
C894        C900   1.430       .  A
C894        C895   1.421       .  A
C895        C897   1.399       .  A
C895        C896   1.400       .  A
C896        H907   1.085       .  S
C897        C898   1.388       .  A
C897        H908   1.084       .  S
C898        C899   1.399       .  A
C898        H909   1.084       .  S
C899        C900   1.424       .  A
C899        C904   1.404       .  A
C901        C902   1.397       .  A
C901        H910   1.077       .  S
C902        C903   1.401   1_655  A
C902        H911   1.083       .  S
C904        H912   1.085       .  S
