geometry optimzed in LAMMPS
_audit_creation_date              2020-12-01 
_audit_creation_method            'lammps2cif' 
_symmetry_space_group_name_H-M    'P1' 
_symmetry_Int_Tables_number       1 
_symmetry_cell_setting            triclinic 
loop_ 
_symmetry_equiv_pos_as_xyz 
  x,y,z 
_cell_length_a                    27.90563909 
_cell_length_b                    30.468462315751275 
_cell_length_c                    26.131033063456915 
_cell_angle_alpha                 89.74615788449289 
_cell_angle_beta                  90.77995822233333 
_cell_angle_gamma                 90.3842166083268 
loop_ 
_atom_site_label 
_atom_site_type_symbol 
_atom_site_fract_x 
_atom_site_fract_y 
_atom_site_fract_z 
_atom_site_charge 
O1          O  0.45428520  0.20368345  0.54785600    -0.74500
O2          O  0.46188244  0.29734542  0.45055806    -0.74500
O3          O  0.45876356  0.20856038  0.44439473    -0.74600
O4          O  0.45762886  0.29222594  0.55344273    -0.74600
O5          O  0.03748156  0.29070174  0.55754548    -0.74600
O6          O  0.03827304  0.20599202  0.45025621    -0.74500
O7          O  0.04152013  0.29481449  0.45483118    -0.74500
O8          O  0.03403052  0.20213695  0.55395104    -0.74600
Ni9        Ni  0.45529785  0.25045675  0.49888369     1.25400
Ni10       Ni  0.04065771  0.24822996  0.50427936     1.25400
C11         C  0.99280384  0.18759675  0.56715409     0.87700
C12         C  0.00296928  0.31200494  0.43697810     0.87600
C13         C  0.49885396  0.19336021  0.42917388     0.87600
C14         C  0.49743050  0.30577694  0.57282397     0.87800
C15         C  0.50579133  0.46384193  0.29746330     0.86400
C16         C  0.46303671  0.46496171  0.25963050    -0.53800
C17         C  0.46084522  0.00164830  0.22887977     0.09300
C18         C  0.50279416  0.03394163  0.23889970     0.20300
C19         C  0.04941744  0.46946065  0.26229643    -0.54500
C20         C  0.04768075  0.00577469  0.23135922     0.09500
C21         C  0.50297516  0.00689824  0.32688174    -0.54100
C22         C  0.00135939  0.04338261  0.29684598     0.10000
H23         H  0.43698338  0.43842763  0.25704218     0.14500
H24         H  0.50252609  0.06353518  0.21425780     0.00300
H25         H  0.07730347  0.44535385  0.25777391     0.14800
H26         H  0.50231097  0.00843569  0.36841476     0.14600
C27         C  0.99587419  0.45727833  0.70920545     0.86400
C28         C  0.04129647  0.46405001  0.74221760    -0.53800
C29         C  0.04271382  0.00272395  0.76849425     0.09300
C30         C  0.99795030  0.03137329  0.75973944     0.20300
C31         C  0.45479884  0.46253217  0.74757848    -0.54500
C32         C  0.45618725  0.00100400  0.77416887     0.09500
C33         C  0.99208434  0.99821599  0.67542326    -0.54100
C34         C  0.49347181  0.03698056  0.70123606     0.10000
H35         H  0.06858733  0.43901234  0.74638852     0.14500
H36         H  0.99844710  0.06270008  0.78127814     0.00300
H37         H  0.42756685  0.43825659  0.75573158     0.14800
H38         H  0.98891092  0.99658450  0.63397687     0.14600
O39         O  0.20166787  0.05163094  0.05186522    -0.74500
O40         O  0.29851877  0.05555222  0.94869865    -0.74500
O41         O  0.20091122  0.05671856  0.94839378    -0.74600
O42         O  0.29928754  0.05024282  0.05260241    -0.74600
O43         O  0.29625285  0.47734643  0.04876606    -0.74600
O44         O  0.20104326  0.48363908  0.94307111    -0.74500
O45         O  0.29761026  0.48242458  0.94606600    -0.74500
O46         O  0.19955331  0.47881085  0.04617417    -0.74600
Ni47       Ni  0.25015039  0.05623616  0.00057136     1.25400
Ni48       Ni  0.24849672  0.47805509  0.99587171     1.25400
C49         C  0.18415122  0.01447519  0.06572414     0.87700
C50         C  0.31434815  0.01937467  0.93086276     0.87600
C51         C  0.18514326  0.02097029  0.92855977     0.87600
C52         C  0.31418326  0.01253457  0.06783553     0.87800
C53         C  0.14924721  0.02214467  0.88702250    -0.00200
C54         C  0.16332737  0.50829741  0.83857800    -0.12100
C55         C  0.12987922  0.50411038  0.79865635     0.02000
C56         C  0.08071693  0.01266374  0.80736654    -0.00300
C57         C  0.06720609  0.02839399  0.85561915    -0.12000
C58         C  0.10112602  0.03332175  0.89536546     0.01900
H59         H  0.20059500  0.50024765  0.83211486     0.14900
H60         H  0.02982964  0.03505213  0.86306937     0.14900
C61         C  0.08547974  0.04748542  0.94504705     0.36500
C62         C  0.14759384  0.49160392  0.74930801     0.36400
N63         N  0.07310552  0.05878569  0.98494889    -0.43800
N64         N  0.16345323  0.48164238  0.71042766    -0.43800
C65         C  0.42377053  0.00915325  0.81741832    -0.00200
C66         C  0.39389000  0.04599909  0.81676686    -0.12100
C67         C  0.35878551  0.05126240  0.85431194     0.02000
C68         C  0.35341109  0.01901422  0.89301770    -0.00300
C69         C  0.38550498  0.48358500  0.89493095    -0.12000
C70         C  0.42068579  0.47869503  0.85807103     0.01900
H71         H  0.39675052  0.06970498  0.78585196     0.14900
H72         H  0.38282765  0.45934165  0.92531422     0.14900
C73         C  0.45344743  0.44234492  0.86301128     0.36500
C74         C  0.32737535  0.08861707  0.85053361     0.36400
N75         N  0.47987243  0.41336718  0.86680260    -0.43800
N76         N  0.30232187  0.11865708  0.84740191    -0.43800
C77         C  0.08022625  0.01028185  0.18691841    -0.00200
C78         C  0.08811092  0.97297713  0.15689755    -0.12100
C79         C  0.12025418  0.97378924  0.11640956     0.02000
C80         C  0.14635411  0.01267894  0.10542941    -0.00300
C81         C  0.13671452  0.55058560  0.13387423    -0.12000
C82         C  0.10367393  0.54982423  0.17386768     0.01900
H83         H  0.06866979  0.94281921  0.16495257     0.14900
H84         H  0.15548221  0.58100063  0.12548959     0.14900
C85         C  0.09530363  0.59009623  0.20098690     0.36500
C86         C  0.12448440  0.93423683  0.08654794     0.36400
N87         N  0.08875893  0.62311184  0.22135724    -0.43800
N88         N  0.12747057  0.90248470  0.06267983    -0.43800
C89         C  0.42431641  0.00614093  0.18663016    -0.00200
C90         C  0.40984186  0.46794037  0.16039315    -0.12100
C91         C  0.37448702  0.46899895  0.12199371     0.02000
C92         C  0.35265728  0.00943393  0.10798929    -0.00300
C93         C  0.36817217  0.04780340  0.13317181    -0.12000
C94         C  0.40338718  0.04658928  0.17203652     0.01900
H95         H  0.42651512  0.43678089  0.16950497     0.14900
H96         H  0.35226562  0.07908312  0.12301979     0.14900
C97         C  0.41588171  0.08746599  0.19660040     0.36500
C98         C  0.36201135  0.42783317  0.09780924     0.36400
N99         N  0.42579721  0.12074105  0.21527636    -0.43800
N100        N  0.35209817  0.39473903  0.07868711    -0.43800
C101        C  0.50552465  0.42392076  0.33371109    -0.00200
C102        C  0.04720269  0.39864477  0.34220327    -0.12100
C103        C  0.04739459  0.36221238  0.37505869     0.02000
C104        C  0.50524434  0.35003973  0.40112253    -0.00300
C105        C  0.46419581  0.37594427  0.39434523    -0.12000
C106        C  0.46417567  0.41275580  0.36216670     0.01900
H107        H  0.08074745  0.40742129  0.32482320     0.14900
H108        H  0.43191139  0.36804212  0.41522359     0.14900
C109        C  0.42111488  0.43882808  0.36018415     0.36500
C110        C  0.09162949  0.33817597  0.38082694     0.36400
N111        N  0.38649283  0.45951695  0.35870365    -0.43800
N112        N  0.12718219  0.31912054  0.38543481    -0.43800
C113        C  0.99934042  0.15957260  0.38802899    -0.00200
C114        C  0.45605474  0.13844631  0.37413593    -0.12100
C115        C  0.45552177  0.10245559  0.34094685     0.02000
C116        C  0.99868334  0.08719380  0.32048224    -0.00300
C117        C  0.04147753  0.10941427  0.33183594    -0.12000
C118        C  0.04221070  0.14572392  0.36452127     0.01900
H119        H  0.42267327  0.14863467  0.39104329     0.14900
H120        H  0.07489473  0.09687148  0.31731065     0.14900
C121        C  0.08778370  0.16720367  0.37373125     0.36500
C122        C  0.41063094  0.08015260  0.33054597     0.36400
N123        N  0.12435533  0.18439278  0.38091934    -0.43800
N124        N  0.37468724  0.06231923  0.32197284    -0.43800
C125        C  0.99776289  0.34108517  0.61139393    -0.00200
C126        C  0.03502945  0.37198534  0.61006442    -0.12100
C127        C  0.03473056  0.40907348  0.64119748     0.02000
C128        C  0.99739525  0.41532764  0.67686605    -0.00300
C129        C  0.46093011  0.38299023  0.67925838    -0.12000
C130        C  0.46053826  0.34662691  0.64661898     0.01900
H131        H  0.06337194  0.36846254  0.58238919     0.14900
H132        H  0.43150162  0.38575569  0.70508791     0.14900
C133        C  0.42143000  0.31550411  0.65027380     0.36500
C134        C  0.07156546  0.44163318  0.63233353     0.36400
N135        N  0.38997156  0.29070339  0.65308044    -0.43800
N136        N  0.10053876  0.46780995  0.62349447    -0.43800
C137        C  0.48958141  0.07931533  0.67319403    -0.00200
C138        C  0.45507871  0.08238799  0.63371689    -0.12100
C139        C  0.45500352  0.11761747  0.59942305     0.02000
C140        C  0.48964029  0.15130862  0.60469795    -0.00300
C141        C  0.02271696  0.14947139  0.64573805    -0.12000
C142        C  0.02277695  0.11396881  0.68014120     0.01900
H143        H  0.42915684  0.05605308  0.62831331     0.14900
H144        H  0.04909754  0.17550389  0.65042004     0.14900
C145        C  0.05879715  0.11298054  0.72028912     0.36500
C146        C  0.42136810  0.11638953  0.55690978     0.36400
N147        N  0.08758574  0.11258099  0.75258940    -0.43800
N148        N  0.39461124  0.11519292  0.52270540    -0.43800
O149        O  0.45426434  0.70362264  0.54774931    -0.74500
O150        O  0.46181824  0.79730733  0.45046698    -0.74500
O151        O  0.45880808  0.70851761  0.44428996    -0.74600
O152        O  0.45750028  0.79217178  0.55334961    -0.74600
O153        O  0.03735440  0.79070868  0.55751239    -0.74600
O154        O  0.03832953  0.70602224  0.45019377    -0.74500
O155        O  0.04145992  0.79485123  0.45480206    -0.74500
O156        O  0.03401839  0.70213806  0.55388622    -0.74600
Ni157      Ni  0.45525616  0.75040425  0.49878194     1.25400
Ni158      Ni  0.04062194  0.74825166  0.50423427     1.25400
C159        C  0.99280071  0.68755867  0.56706753     0.87700
C160        C  0.00290082  0.81201030  0.43692601     0.87600
C161        C  0.49892281  0.69335353  0.42908989     0.87600
C162        C  0.49727627  0.80575576  0.57276014     0.87800
C163        C  0.50565360  0.96389564  0.29745769     0.86400
C164        C  0.46292905  0.96501795  0.25958327    -0.53800
C165        C  0.46094281  0.50157523  0.22890447     0.09300
C166        C  0.50290906  0.53386555  0.23887275     0.20300
C167        C  0.04930130  0.96954663  0.26234747    -0.54500
C168        C  0.04778417  0.50568361  0.23130093     0.09500
C169        C  0.50315876  0.50685874  0.32686848    -0.54100
C170        C  0.00154032  0.54333036  0.29681220     0.10000
H171        H  0.43688685  0.93847770  0.25695433     0.14500
H172        H  0.50263488  0.56344868  0.21421376     0.00300
H173        H  0.07719010  0.94543931  0.25783728     0.14800
H174        H  0.50252341  0.50841267  0.36840153     0.14600
C175        C  0.99567196  0.95726140  0.70916414     0.86400
C176        C  0.04107066  0.96395880  0.74223129    -0.53800
C177        C  0.04289984  0.50282656  0.76846053     0.09300
C178        C  0.99808430  0.53141077  0.75973989     0.20300
C179        C  0.45457061  0.96254692  0.74750437    -0.54500
C180        C  0.45638511  0.50099332  0.77423133     0.09500
C181        C  0.99218762  0.49821456  0.67544401    -0.54100
C182        C  0.49354675  0.53699595  0.70123524     0.10000
H183        H  0.06831446  0.93888036  0.74641930     0.14500
H184        H  0.99855718  0.56274927  0.78125633     0.00300
H185        H  0.42731217  0.93828884  0.75563647     0.14800
H186        H  0.98898574  0.49656665  0.63400063     0.14600
O187        O  0.20178904  0.55159532  0.05185149    -0.74500
O188        O  0.29870145  0.55552931  0.94874967    -0.74500
O189        O  0.20110172  0.55676630  0.94838615    -0.74600
O190        O  0.29940293  0.55015415  0.05264355    -0.74600
O191        O  0.29617056  0.97743268  0.04877741    -0.74600
O192        O  0.20090922  0.98358811  0.94314544    -0.74500
O193        O  0.29748190  0.98244546  0.94607709    -0.74500
O194        O  0.19947586  0.97884247  0.04625048    -0.74600
Ni195      Ni  0.25030472  0.55621012  0.00059239     1.25400
Ni196      Ni  0.24839339  0.97807789  0.99591735     1.25400
C197        C  0.18424260  0.51443923  0.06566930     0.87700
C198        C  0.31450959  0.51935214  0.93089052     0.87600
C199        C  0.18531865  0.52104369  0.92850730     0.87600
C200        C  0.31427242  0.51243352  0.06785957     0.87800
C201        C  0.14943962  0.52227723  0.88695700    -0.00200
C202        C  0.16312844  0.00810970  0.83866430    -0.12100
C203        C  0.12968274  0.00389722  0.79874505     0.02000
C204        C  0.08090729  0.51282086  0.80730594    -0.00300
C205        C  0.06739692  0.52853194  0.85556633    -0.12000
C206        C  0.10132124  0.53346002  0.89530633     0.01900
H207        H  0.20039256  0.00003710  0.83221513     0.14900
H208        H  0.03001863  0.53517100  0.86302888     0.14900
C209        C  0.08568398  0.54764065  0.94498462     0.36500
C210        C  0.14740009  0.99129081  0.74943334     0.36400
N211        N  0.07331809  0.55896422  0.98488037    -0.43800
N212        N  0.16326757  0.98123326  0.71059115    -0.43800
C213        C  0.42396322  0.50912499  0.81748256    -0.00200
C214        C  0.39412672  0.54600063  0.81686540    -0.12100
C215        C  0.35900579  0.55125901  0.85439234     0.02000
C216        C  0.35358372  0.51898649  0.89306126    -0.00300
C217        C  0.38538130  0.98364984  0.89492053    -0.12000
C218        C  0.42056021  0.97876865  0.85805529     0.01900
H219        H  0.39702527  0.56973109  0.78598038     0.14900
H220        H  0.38275055  0.95943497  0.92533936     0.14900
C221        C  0.45340721  0.94248827  0.86304496     0.36500
C222        C  0.32761511  0.58862723  0.85061762     0.36400
N223        N  0.47991447  0.91357709  0.86687548    -0.43800
N224        N  0.30257331  0.61867504  0.84748186    -0.43800
C225        C  0.08032377  0.51020377  0.18686060    -0.00200
C226        C  0.08816148  0.47292415  0.15678408    -0.12100
C227        C  0.12028858  0.47375770  0.11627964     0.02000
C228        C  0.14643495  0.51263491  0.10536121    -0.00300
C229        C  0.13658518  0.05065417  0.13388125    -0.12000
C230        C  0.10353981  0.04990804  0.17387258     0.01900
H231        H  0.06869195  0.44277459  0.16480507     0.14900
H232        H  0.15531806  0.08107749  0.12545013     0.14900
C233        C  0.09512674  0.09020087  0.20093519     0.36500
C234        C  0.12444529  0.43424880  0.08632669     0.36400
N235        N  0.08854412  0.12322881  0.22126433    -0.43800
N236        N  0.12736924  0.40253463  0.06238008    -0.43800
C237        C  0.42439330  0.50604504  0.18667022    -0.00200
C238        C  0.40978832  0.96804878  0.16032125    -0.12100
C239        C  0.37443162  0.96911409  0.12192889     0.02000
C240        C  0.35272788  0.50931897  0.10803242    -0.00300
C241        C  0.36825428  0.54769346  0.13319680    -0.12000
C242        C  0.40347566  0.54649013  0.17205152     0.01900
H243        H  0.42647193  0.93688991  0.16941390     0.14900
H244        H  0.35236171  0.57897514  0.12302723     0.14900
C245        C  0.41599941  0.58738062  0.19656678     0.36500
C246        C  0.36195524  0.92794756  0.09774626     0.36400
N247        N  0.42593929  0.62066820  0.21519812    -0.43800
N248        N  0.35203473  0.89485243  0.07863083    -0.43800
C249        C  0.50539515  0.92395836  0.33368466    -0.00200
C250        C  0.04711550  0.89877009  0.34227916    -0.12100
C251        C  0.04733349  0.86233513  0.37513121     0.02000
C252        C  0.50515409  0.85005984  0.40107844    -0.00300
C253        C  0.46406127  0.87589503  0.39422427    -0.12000
C254        C  0.46402428  0.91272162  0.36206592     0.01900
H255        H  0.08068000  0.90763119  0.32499236     0.14900
H256        H  0.43175598  0.86793370  0.41503747     0.14900
C257        C  0.42093220  0.93874874  0.36004742     0.36500
C258        C  0.09163492  0.83842215  0.38103812     0.36400
N259        N  0.38628974  0.95940828  0.35854057    -0.43800
N260        N  0.12724270  0.81947090  0.38576506    -0.43800
C261        C  0.99947087  0.65955443  0.38795229    -0.00200
C262        C  0.45618168  0.63843649  0.37401080    -0.12100
C263        C  0.45567444  0.60243475  0.34083966     0.02000
C264        C  0.99886596  0.58715028  0.32043432    -0.00300
C265        C  0.04165872  0.60935506  0.33184903    -0.12000
C266        C  0.04236616  0.64568111  0.36451425     0.01900
H267        H  0.42278259  0.64863672  0.39086950     0.14900
H268        H  0.07508978  0.59679181  0.31738315     0.14900
C269        C  0.08793508  0.66715446  0.37377125     0.36500
C270        C  0.41078844  0.58013420  0.33040950     0.36400
N271        N  0.12450437  0.68433912  0.38098990    -0.43800
N272        N  0.37484740  0.56230350  0.32181592    -0.43800
C273        C  0.99755754  0.84107859  0.61131832    -0.00200
C274        C  0.03485246  0.87195312  0.61005145    -0.12100
C275        C  0.03454365  0.90904214  0.64118109     0.02000
C276        C  0.99716886  0.91532472  0.67679555    -0.00300
C277        C  0.46066260  0.88301988  0.67912245    -0.12000
C278        C  0.46028051  0.84665609  0.64647773     0.01900
H279        H  0.06323572  0.86840866  0.58242778     0.14900
H280        H  0.43119456  0.88582199  0.70489826     0.14900
C281        C  0.42112868  0.81557316  0.65005891     0.36500
C282        C  0.07141648  0.94157571  0.63236410     0.36400
N283        N  0.38963477  0.79080508  0.65280916    -0.43800
N284        N  0.10041943  0.96773288  0.62355616    -0.43800
C285        C  0.48963492  0.57931958  0.67317829    -0.00200
C286        C  0.45506248  0.58240442  0.63377407    -0.12100
C287        C  0.45495410  0.61762588  0.59946420     0.02000
C288        C  0.48964685  0.65128411  0.60463481    -0.00300
C289        C  0.02280903  0.64941921  0.64560257    -0.12000
C290        C  0.02288874  0.61393351  0.68002799     0.01900
H291        H  0.42910712  0.55608632  0.62844344     0.14900
H292        H  0.04922932  0.67542628  0.65021818     0.14900
C293        C  0.05898402  0.61292496  0.72009825     0.36500
C294        C  0.42120716  0.61642597  0.55705120     0.36400
N295        N  0.08783607  0.61250958  0.75233344    -0.43800
N296        N  0.39435375  0.61525248  0.52293167    -0.43800
O297        O  0.95429432  0.20368630  0.54787788    -0.74500
O298        O  0.96191363  0.29734996  0.45058666    -0.74500
O299        O  0.95877251  0.20856608  0.44441779    -0.74600
O300        O  0.95766123  0.29222311  0.55347212    -0.74600
O301        O  0.53744870  0.29071710  0.55751976    -0.74600
O302        O  0.53826446  0.20600412  0.45023438    -0.74500
O303        O  0.54148942  0.29482584  0.45480815    -0.74500
O304        O  0.53402197  0.20215065  0.55392809    -0.74600
Ni305      Ni  0.95531869  0.25046024  0.49890914     1.25400
Ni306      Ni  0.54063708  0.24824358  0.50425624     1.25400
C307        C  0.49279943  0.18760129  0.56713106     0.87700
C308        C  0.50293578  0.31200875  0.43695334     0.87600
C309        C  0.99885863  0.19335764  0.42919613     0.87600
C310        C  0.99746623  0.30576351  0.57285472     0.87800
C311        C  0.00583532  0.46383834  0.29747899     0.86400
C312        C  0.96309524  0.46494360  0.25962529    -0.53800
C313        C  0.96089402  0.00163179  0.22888189     0.09300
C314        C  0.00282267  0.03394193  0.23892491     0.20300
C315        C  0.54935956  0.46944162  0.26225793    -0.54500
C316        C  0.54763324  0.00575402  0.23131336     0.09500
C317        C  0.00297531  0.00689516  0.32690537    -0.54100
C318        C  0.50136334  0.04338516  0.29682145     0.10000
H319        H  0.93705326  0.43840090  0.25702465     0.14500
H320        H  0.00254925  0.06353653  0.21428488     0.00300
H321        H  0.57723106  0.44532180  0.25772464     0.14800
H322        H  0.00229641  0.00843115  0.36843799     0.14600
C323        C  0.49588538  0.45729189  0.70919122     0.86400
C324        C  0.54130973  0.46405137  0.74220469    -0.53800
C325        C  0.54274096  0.00272379  0.76848740     0.09300
C326        C  0.49798246  0.03138231  0.75972928     0.20300
C327        C  0.95478402  0.46250965  0.74759014    -0.54500
C328        C  0.95616249  0.00098725  0.77417475     0.09500
C329        C  0.49211121  0.99822105  0.67541505    -0.54100
C330        C  0.99343981  0.03697422  0.70124843     0.10000
H331        H  0.56858802  0.43900287  0.74637915     0.14500
H332        H  0.49848615  0.06271071  0.78126465     0.00300
H333        H  0.92755329  0.43823237  0.75573815     0.14800
H334        H  0.48893802  0.99658674  0.63396870     0.14600
O335        O  0.70168348  0.05159908  0.05189306    -0.74500
O336        O  0.79852387  0.05552534  0.94872338    -0.74500
O337        O  0.70091851  0.05668683  0.94842517    -0.74600
O338        O  0.79930711  0.05021427  0.05262464    -0.74600
O339        O  0.79626927  0.47731744  0.04879761    -0.74600
O340        O  0.70105319  0.48360653  0.94310261    -0.74500
O341        O  0.79761895  0.48239678  0.94609825    -0.74500
O342        O  0.69956397  0.47877688  0.04620588    -0.74600
Ni343      Ni  0.75016233  0.05620613  0.00059917     1.25400
Ni344      Ni  0.74850826  0.47802402  0.99590448     1.25400
C345        C  0.68416164  0.01444401  0.06574545     0.87700
C346        C  0.81435275  0.01934850  0.93088684     0.87600
C347        C  0.68515266  0.02093824  0.92858953     0.87600
C348        C  0.81421054  0.01250713  0.06785393     0.87800
C349        C  0.64926141  0.02211251  0.88704479    -0.00200
C350        C  0.66334255  0.50823233  0.83861030    -0.12100
C351        C  0.62990312  0.50405552  0.79867795     0.02000
C352        C  0.58074345  0.01265276  0.80736809    -0.00300
C353        C  0.56723144  0.02839898  0.85561368    -0.12000
C354        C  0.60114436  0.03331549  0.89536980     0.01900
H355        H  0.70060498  0.50015196  0.83216449     0.14900
H356        H  0.52985737  0.03507750  0.86305226     0.14900
C357        C  0.58549190  0.04749165  0.94504402     0.36500
C358        C  0.64762542  0.49151219  0.74934573     0.36400
N359        N  0.57311066  0.05880051  0.98493991    -0.43800
N360        N  0.66349316  0.48151755  0.71048106    -0.43800
C361        C  0.92374709  0.00913220  0.81742265    -0.00200
C362        C  0.89384847  0.04596520  0.81675997    -0.12100
C363        C  0.85875143  0.05122707  0.85431152     0.02000
C364        C  0.85340636  0.01899150  0.89303557    -0.00300
C365        C  0.88550717  0.48356642  0.89495675    -0.12000
C366        C  0.92067792  0.47867429  0.85808759     0.01900
H367        H  0.89668970  0.06966105  0.78583240     0.14900
H368        H  0.88284167  0.45932850  0.92534726     0.14900
C369        C  0.95344443  0.44232767  0.86302512     0.36500
C370        C  0.82731693  0.08856398  0.85052060     0.36400
N371        N  0.97987227  0.41335195  0.86681441    -0.43800
N372        N  0.80224328  0.11858917  0.84737829    -0.43800
C373        C  0.58018142  0.01026210  0.18687773    -0.00200
C374        C  0.58804333  0.97296686  0.15683363    -0.12100
C375        C  0.62020365  0.97377760  0.11636081     0.02000
C376        C  0.64634723  0.01265246  0.10542893    -0.00300
C377        C  0.63671485  0.55055249  0.13388995    -0.12000
C378        C  0.60365528  0.54979602  0.17386397     0.01900
H379        H  0.56857283  0.94281907  0.16486026     0.14900
H380        H  0.65550533  0.58096053  0.12552849     0.14900
C381        C  0.59529528  0.59006458  0.20099345     0.36500
C382        C  0.62440235  0.93424442  0.08645871     0.36400
N383        N  0.58875913  0.62307820  0.22137127    -0.43800
N384        N  0.62736228  0.90250922  0.06255573    -0.43800
C385        C  0.92436941  0.00612200  0.18662667    -0.00200
C386        C  0.90991470  0.46792544  0.16037033    -0.12100
C387        C  0.87455449  0.46898200  0.12197457     0.02000
C388        C  0.85270017  0.00941049  0.10799344    -0.00300
C389        C  0.86819763  0.04777759  0.13319270    -0.12000
C390        C  0.90341785  0.04656573  0.17205265     0.01900
H391        H  0.92660569  0.43677080  0.16946728     0.14900
H392        H  0.85227090  0.07905304  0.12305994     0.14900
C393        C  0.91589229  0.08743894  0.19663554     0.36500
C394        C  0.86210582  0.42782212  0.09776175     0.36400
N395        N  0.92579246  0.12071111  0.21532728    -0.43800
N396        N  0.85221523  0.39473274  0.07861580    -0.43800
C397        C  0.00556830  0.42391368  0.33372487    -0.00200
C398        C  0.54716348  0.39866014  0.34219441    -0.12100
C399        C  0.54735936  0.36222812  0.37504852     0.02000
C400        C  0.00528203  0.35003416  0.40114307    -0.00300
C401        C  0.96423645  0.37594236  0.39436422    -0.12000
C402        C  0.96421724  0.41274914  0.36217783     0.01900
H403        H  0.58070978  0.40744738  0.32482320     0.14900
H404        H  0.93195147  0.36804421  0.41524346     0.14900
C405        C  0.92115126  0.43881357  0.36017828     0.36500
C406        C  0.59160341  0.33820813  0.38083295     0.36400
N407        N  0.88652374  0.45949428  0.35868317    -0.43800
N408        N  0.62716433  0.31916780  0.38545600    -0.43800
C409        C  0.49934539  0.15957441  0.38800674    -0.00200
C410        C  0.95605115  0.13842898  0.37418734    -0.12100
C411        C  0.95551471  0.10243756  0.34099930     0.02000
C412        C  0.49869539  0.08719677  0.32045738    -0.00300
C413        C  0.54149352  0.10939953  0.33184239    -0.12000
C414        C  0.54222377  0.14570927  0.36452770     0.01900
H415        H  0.92267539  0.14860585  0.39111678     0.14900
H416        H  0.57491391  0.09684350  0.31734039     0.14900
C417        C  0.58780207  0.16717031  0.37376865     0.36500
C418        C  0.91062625  0.08012290  0.33062222     0.36400
N419        N  0.62437795  0.18434461  0.38098147    -0.43800
N420        N  0.87468291  0.06228232  0.32206866    -0.43800
C421        C  0.49772337  0.34110679  0.61135698    -0.00200
C422        C  0.53501519  0.37198369  0.61005386    -0.12100
C423        C  0.53473065  0.40907002  0.64119109     0.02000
C424        C  0.49738700  0.41534358  0.67684442    -0.00300
C425        C  0.96097339  0.38294349  0.67931646    -0.12000
C426        C  0.96059775  0.34657562  0.64668508     0.01900
H427        H  0.56337028  0.36844460  0.58239622     0.14900
H428        H  0.93156478  0.38568261  0.70517406     0.14900
C429        C  0.92153122  0.31541269  0.65038250     0.36500
C430        C  0.57158984  0.44161051  0.63234569     0.36400
N431        N  0.89010795  0.29057781  0.65322476    -0.43800
N432        N  0.60058271  0.46777310  0.62352232    -0.43800
C433        C  0.98955486  0.07931191  0.67321423    -0.00200
C434        C  0.95505134  0.08239357  0.63374008    -0.12100
C435        C  0.95498209  0.11762631  0.59945128     0.02000
C436        C  0.98963272  0.15130639  0.60472244    -0.00300
C437        C  0.52272634  0.14948053  0.64571266    -0.12000
C438        C  0.52279842  0.11397688  0.68011486     0.01900
H439        H  0.92912280  0.05606411  0.62833639     0.14900
H440        H  0.54910098  0.17551825  0.65039295     0.14900
C441        C  0.55882975  0.11298921  0.72025123     0.36500
C442        C  0.92133265  0.11641518  0.55695025     0.36400
N443        N  0.58762927  0.11258782  0.75254034    -0.43800
N444        N  0.89456200  0.11523341  0.52275746    -0.43800
O445        O  0.95428445  0.70361793  0.54777000    -0.74500
O446        O  0.96185348  0.79730737  0.45049728    -0.74500
O447        O  0.95882831  0.70851832  0.44431267    -0.74600
O448        O  0.95753566  0.79216299  0.55337952    -0.74600
O449        O  0.53731856  0.79072429  0.55748448    -0.74600
O450        O  0.53830959  0.70603468  0.45017132    -0.74500
O451        O  0.54142510  0.79486209  0.45477603    -0.74500
O452        O  0.53399871  0.70215379  0.55386270    -0.74600
Ni453      Ni  0.95528439  0.75040169  0.49880769     1.25400
Ni454      Ni  0.54059388  0.74826569  0.50420942     1.25400
C455        C  0.49278417  0.68756937  0.56704647     0.87700
C456        C  0.50286416  0.81201493  0.43689752     0.87600
C457        C  0.99893986  0.69334798  0.42911234     0.87600
C458        C  0.99731345  0.80574084  0.57279082     0.87800
C459        C  0.00569137  0.96389464  0.29748143     0.86400
C460        C  0.96298377  0.96499961  0.25958241    -0.53800
C461        C  0.96099496  0.50155939  0.22890313     0.09300
C462        C  0.00294278  0.53386522  0.23889296     0.20300
C463        C  0.54924759  0.96952432  0.26229774    -0.54500
C464        C  0.54773313  0.50566472  0.23126386     0.09500
C465        C  0.00316961  0.50685260  0.32688605    -0.54100
C466        C  0.50153428  0.54333499  0.29679206     0.10000
H467        H  0.93695440  0.93844969  0.25693918     0.14500
H468        H  0.00266365  0.56345012  0.21423688     0.00300
H469        H  0.57712132  0.94540400  0.25777361     0.14800
H470        H  0.00252262  0.50840400  0.36841887     0.14600
C471        C  0.49568679  0.95726825  0.70915780     0.86400
C472        C  0.54108685  0.96395712  0.74222622    -0.53800
C473        C  0.54292712  0.50282827  0.76844856     0.09300
C474        C  0.49811753  0.53142378  0.75972724     0.20300
C475        C  0.95455365  0.96253039  0.74751020    -0.54500
C476        C  0.95636045  0.50097142  0.77424165     0.09500
C477        C  0.49221211  0.49822855  0.67543103    -0.54100
C478        C  0.99351532  0.53698239  0.70124891     0.10000
H479        H  0.56832088  0.93887046  0.74641892     0.14500
H480        H  0.49859835  0.56276316  0.78124181     0.00300
H481        H  0.92729686  0.93827032  0.75563830     0.14800
H482        H  0.48900772  0.49658068  0.63398772     0.14600
O483        O  0.70179883  0.55156182  0.05188225    -0.74500
O484        O  0.79870386  0.55550197  0.94877894    -0.74500
O485        O  0.70110568  0.55673338  0.94841922    -0.74600
O486        O  0.79941677  0.55012554  0.05267053    -0.74600
O487        O  0.79619215  0.97740369  0.04880439    -0.74600
O488        O  0.70092135  0.98355666  0.94317554    -0.74500
O489        O  0.79749333  0.98241795  0.94610454    -0.74500
O490        O  0.69949149  0.97880991  0.04627998    -0.74600
Ni491      Ni  0.75031204  0.55617930  0.00062362     1.25400
Ni492      Ni  0.74840880  0.97804743  0.99594684     1.25400
C493        C  0.68424825  0.51440607  0.06569430     0.87700
C494        C  0.81451235  0.51932545  0.93091979     0.87600
C495        C  0.68532630  0.52101040  0.92853733     0.87600
C496        C  0.81429414  0.51240614  0.06788284     0.87800
C497        C  0.64945430  0.52224344  0.88697684    -0.00200
C498        C  0.66314492  0.00805996  0.83869433    -0.12100
C499        C  0.62970680  0.00385668  0.79876577     0.02000
C500        C  0.58093538  0.51280890  0.80730286    -0.00300
C501        C  0.56742631  0.52854904  0.85555145    -0.12000
C502        C  0.60134319  0.53346667  0.89530160     0.01900
H503        H  0.70040588  0.99996732  0.83225797     0.14900
H504        H  0.53005215  0.53521901  0.86299907     0.14900
C505        C  0.58570183  0.54767628  0.94496677     0.36500
C506        C  0.64743196  0.99122636  0.74946589     0.36400
N507        N  0.57333090  0.55902203  0.98485196    -0.43800
N508        N  0.66330907  0.98114715  0.71063606    -0.43800
C509        C  0.92393938  0.50909838  0.81749197    -0.00200
C510        C  0.89409541  0.54596861  0.81687208    -0.12100
C511        C  0.85898235  0.55122753  0.85440594     0.02000
C512        C  0.85357880  0.51896200  0.89308524    -0.00300
C513        C  0.88539320  0.98364059  0.89494772    -0.12000
C514        C  0.92056252  0.97875939  0.85807333     0.01900
H515        H  0.89698251  0.56969406  0.78598050     0.14900
H516        H  0.88278135  0.95943576  0.92537948     0.14900
C517        C  0.95342488  0.94249106  0.86306621     0.36500
C518        C  0.82757975  0.58858725  0.85062747     0.36400
N519        N  0.97994391  0.91358920  0.86689948    -0.43800
N520        N  0.80252808  0.61862794  0.84748820    -0.43800
C521        C  0.58027673  0.51018342  0.18682868    -0.00200
C522        C  0.58810190  0.47290892  0.15673933    -0.12100
C523        C  0.62024718  0.47373901  0.11625097     0.02000
C524        C  0.64642515  0.51260545  0.10536726    -0.00300
C525        C  0.63659803  0.05062061  0.13390033    -0.12000
C526        C  0.60353216  0.04987859  0.17387049     0.01900
H527        H  0.56861083  0.44276690  0.16473976     0.14900
H528        H  0.65536201  0.08103454  0.12550119     0.14900
C529        C  0.59513571  0.09016519  0.20095133     0.36500
C530        C  0.62438833  0.43424099  0.08627552     0.36400
N531        N  0.58856673  0.12318944  0.22129366    -0.43800
N532        N  0.62729922  0.40253630  0.06230974    -0.43800
C533        C  0.92444756  0.50602700  0.18666503    -0.00200
C534        C  0.90986451  0.96803367  0.16029621    -0.12100
C535        C  0.87450620  0.96909750  0.12190347     0.02000
C536        C  0.85276600  0.50929570  0.10804074    -0.00300
C537        C  0.86827949  0.54766852  0.13321758    -0.12000
C538        C  0.90350877  0.54646773  0.17206495     0.01900
H539        H  0.92656721  0.93688017  0.16937360     0.14900
H540        H  0.85236836  0.57894630  0.12306585     0.14900
C541        C  0.91601630  0.58735529  0.19659579     0.36500
C542        C  0.86206424  0.92793841  0.09768492     0.36400
N543        N  0.92594370  0.62064031  0.21524050    -0.43800
N544        N  0.85217279  0.89484920  0.07853928    -0.43800
C545        C  0.00543470  0.92395486  0.33370795    -0.00200
C546        C  0.54707524  0.89877247  0.34225076    -0.12100
C547        C  0.54729443  0.86233854  0.37510276     0.02000
C548        C  0.00519286  0.85005612  0.40110610    -0.00300
C549        C  0.96409835  0.87588797  0.39424383    -0.12000
C550        C  0.96405992  0.91271129  0.36207961     0.01900
H551        H  0.58063932  0.90763530  0.32496303     0.14900
H552        H  0.93179056  0.86792416  0.41505132     0.14900
C553        C  0.92095885  0.93872507  0.36004007     0.36500
C554        C  0.59159850  0.83843027  0.38101411     0.36400
N555        N  0.88630802  0.95937229  0.35851588    -0.43800
N556        N  0.62720910  0.81948432  0.38574663    -0.43800
C557        C  0.49946173  0.65955986  0.38792968    -0.00200
C558        C  0.95619121  0.63842011  0.37405561    -0.12100
C559        C  0.95568001  0.60241826  0.34088452     0.02000
C560        C  0.49886487  0.58715585  0.32041157    -0.00300
C561        C  0.54165986  0.60934836  0.33184956    -0.12000
C562        C  0.54236372  0.64567509  0.36451365     0.01900
H563        H  0.92279679  0.64861214  0.39093144     0.14900
H564        H  0.57509379  0.59677561  0.31740195     0.14900
C565        C  0.58793589  0.66713596  0.37379326     0.36500
C566        C  0.91079503  0.58011018  0.33047238     0.36400
N567        N  0.62450767  0.68431087  0.38103000    -0.43800
N568        N  0.87485346  0.56227533  0.32189371    -0.43800
C569        C  0.49752049  0.84109723  0.61128598    -0.00200
C570        C  0.53484032  0.87194837  0.61004516    -0.12100
C571        C  0.53454818  0.90903290  0.64118284     0.02000
C572        C  0.49716681  0.91533273  0.67678467    -0.00300
C573        C  0.96069648  0.88298382  0.67916581    -0.12000
C574        C  0.96033243  0.84661322  0.64653236     0.01900
H575        H  0.56323359  0.86838998  0.58243566     0.14900
H576        H  0.93124406  0.88576383  0.70496399     0.14900
C577        C  0.92121821  0.81549398  0.65015196     0.36500
C578        C  0.57144520  0.94154719  0.63238450     0.36400
N579        N  0.88975585  0.79069512  0.65293422    -0.43800
N580        N  0.60046794  0.96768959  0.62359118    -0.43800
C581        C  0.98961432  0.57930713  0.67319410    -0.00200
C582        C  0.95505054  0.58239704  0.63378266    -0.12100
C583        C  0.95495370  0.61762015  0.59947558     0.02000
C584        C  0.98965309  0.65127219  0.60465287    -0.00300
C585        C  0.52281183  0.64943568  0.64557689    -0.12000
C586        C  0.52290654  0.61394918  0.68000145     0.01900
H587        H  0.92909189  0.55608251  0.62844575     0.14900
H588        H  0.54922967  0.67544573  0.65018520     0.14900
C589        C  0.55901690  0.61294032  0.72005607     0.36500
C590        C  0.92120820  0.61643009  0.55706109     0.36400
N591        N  0.58788232  0.61252264  0.75227755    -0.43800
N592        N  0.89435468  0.61526551  0.52294131    -0.43800
loop_ 
_geom_bond_atom_site_label_1 
_geom_bond_atom_site_label_2 
_geom_bond_distance 
_geom_bond_site_symmetry_2 
_ccdc_geom_bond_type 
O1           Ni9   1.911       .  S
O1          C307   1.280       .  A
O2           Ni9   1.912       .  S
O2          C308   1.281       .  A
O3           Ni9   1.920       .  S
O3           C13   1.283       .  A
O4           Ni9   1.915       .  S
O4           C14   1.281       .  A
O5          Ni10   1.908       .  S
O5          C310   1.280   1_455  A
O6          Ni10   1.915       .  S
O6          C309   1.281   1_455  A
O7          Ni10   1.915       .  S
O7           C12   1.281       .  A
O8          Ni10   1.918       .  S
O8           C11   1.281   1_455  A
Ni9        Ni306   2.385       .  S
Ni10       Ni305   2.385   1_455  S
C11         O297   1.280       .  A
C11         C436   1.478       .  S
C12         O298   1.281   1_455  A
C12         C400   1.488       .  S
C13         O302   1.281       .  A
C13         C409   1.492       .  S
C14         O301   1.280       .  A
C14         C421   1.477       .  S
C15          C16   1.540       .  S
C15         C169   1.525       .  S
C15         C315   1.543       .  S
C15         C101   1.538       .  S
C16          H23   1.085       .  S
C16         C165   1.373       .  D
C17          C18   1.545       .  S
C17         C164   1.373   1_545  D
C17          C89   1.499       .  S
C18         C318   1.543       .  S
C18         C316   1.538       .  S
C18          H24   1.106       .  S
C19         C311   1.543       .  S
C19          H25   1.082       .  S
C19         C168   1.367       .  D
C20         C314   1.538       .  S
C20         C167   1.367   1_545  D
C20          C77   1.489       .  S
C21         C163   1.525   1_545  S
C21          H26   1.087       .  S
C21         C318   1.359       .  D
C22         C314   1.543       .  S
C22         C317   1.359       .  D
C22         C116   1.476   1_455  S
C27          C28   1.537   1_655  S
C27         C181   1.528       .  S
C27         C327   1.543       .  S
C27         C128   1.537       .  S
C28          H35   1.086       .  S
C28         C177   1.369       .  D
C29          C30   1.543   1_455  S
C29         C176   1.369   1_545  D
C29          C56   1.489       .  S
C30         C330   1.541       .  S
C30         C328   1.534       .  S
C30          H36   1.110       .  S
C31         C323   1.543       .  S
C31          H37   1.080       .  S
C31         C180   1.366       .  D
C32         C326   1.534       .  S
C32         C179   1.366   1_545  D
C32          C65   1.480       .  S
C33         C175   1.528       .  S
C33          H38   1.087       .  S
C33         C330   1.363   1_565  D
C34         C326   1.541       .  S
C34         C329   1.363   1_545  D
C34         C137   1.485       .  S
O39         Ni47   1.921       .  S
O39          C49   1.283       .  A
O40         Ni47   1.926   1_556  S
O40          C50   1.282       .  A
O41         Ni47   1.923   1_556  S
O41          C51   1.281       .  A
O42         Ni47   1.927       .  S
O42          C52   1.284       .  A
O43         Ni48   1.907   1_554  S
O43         C200   1.279       .  A
O44         Ni48   1.907       .  S
O44         C199   1.278       .  A
O45         Ni48   1.906       .  S
O45         C198   1.280       .  A
O46         Ni48   1.909   1_554  S
O46         C197   1.280       .  A
Ni47       Ni196   2.385   1_544  S
Ni48       Ni195   2.385   1_556  S
C49         O194   1.280   1_545  A
C49          C80   1.490       .  S
C50         O193   1.280   1_545  A
C50          C68   1.482       .  S
C51         O192   1.278   1_545  A
C51          C53   1.467       .  S
C52         O191   1.279   1_545  A
C52          C92   1.494       .  S
C53          C58   1.408       .  A
C53         C202   1.396       .  A
C54          C55   1.396       .  A
C54         C201   1.396       .  A
C54          H59   1.086       .  S
C55         C204   1.415       .  A
C55          C62   1.441       .  S
C56          C57   1.408       .  A
C56         C203   1.415       .  A
C57          C58   1.404       .  A
C57          H60   1.084       .  S
C58          C61   1.444       .  S
C61          N63   1.157       .  T
C62          N64   1.156       .  T
C65          C66   1.403       .  A
C65         C218   1.409   1_545  A
C66          C67   1.406       .  A
C66          H71   1.085       .  S
C67          C68   1.416       .  A
C67          C74   1.443       .  S
C68         C217   1.404   1_545  A
C69          C70   1.394       .  A
C69         C216   1.404       .  A
C69          H72   1.085       .  S
C70         C213   1.409       .  A
C70          C73   1.445       .  S
C73          N75   1.157       .  T
C74          N76   1.157       .  T
C77          C78   1.404   1_545  A
C77         C230   1.410       .  A
C78          C79   1.396       .  A
C78          H83   1.085       .  S
C79          C80   1.417   1_565  A
C79          C86   1.445       .  S
C80         C229   1.408       .  A
C81          C82   1.403       .  A
C81         C228   1.408       .  A
C81          H84   1.084       .  S
C82         C225   1.410       .  A
C82          C85   1.442       .  S
C85          N87   1.157       .  T
C86          N88   1.157       .  T
C89          C94   1.416       .  A
C89         C238   1.406   1_545  A
C90          C91   1.398       .  A
C90         C237   1.406       .  A
C90          H95   1.084       .  S
C91         C240   1.418       .  A
C91          C98   1.445       .  S
C92          C93   1.407       .  A
C92         C239   1.418   1_545  A
C93          C94   1.404       .  A
C93          H96   1.084       .  S
C94          C97   1.442       .  S
C97          N99   1.157       .  T
C98         N100   1.158       .  T
C101        C106   1.420       .  A
C101        C398   1.412       .  A
C102        C103   1.400       .  A
C102        C397   1.413       .  A
C102        H107   1.078       .  S
C103        C400   1.413       .  A
C103        C110   1.445       .  S
C104        C308   1.488       .  S
C104        C105   1.404       .  A
C104        C399   1.413       .  A
C105        C106   1.399       .  A
C105        H108   1.085       .  S
C106        C109   1.445       .  S
C109        N111   1.157       .  T
C110        N112   1.157       .  T
C113        C309   1.492       .  S
C113        C118   1.420   1_655  A
C113        C410   1.409       .  A
C114        C115   1.401       .  A
C114        C409   1.409       .  A
C114        H119   1.084       .  S
C115        C412   1.408       .  A
C115        C122   1.444       .  S
C116        C117   1.398   1_655  A
C116        C411   1.408       .  A
C117        C118   1.400       .  A
C117        H120   1.084       .  S
C118        C121   1.444       .  S
C121        N123   1.157       .  T
C122        N124   1.157       .  T
C125        C310   1.477       .  S
C125        C126   1.399   1_655  A
C125        C426   1.408       .  A
C126        C127   1.395       .  A
C126        H131   1.085       .  S
C127        C128   1.422   1_455  A
C127        C134   1.444       .  S
C128        C425   1.414       .  A
C129        C130   1.401       .  A
C129        C424   1.414       .  A
C129        H132   1.074       .  S
C130        C421   1.408       .  A
C130        C133   1.445       .  S
C133        N135   1.157       .  T
C134        N136   1.157       .  T
C137        C138   1.405       .  A
C137        C438   1.411       .  A
C138        C139   1.395       .  A
C138        H143   1.085       .  S
C139        C140   1.411       .  A
C139        C146   1.445       .  S
C140        C307   1.478       .  S
C140        C437   1.406       .  A
C141        C142   1.403       .  A
C141        C436   1.406   1_455  A
C141        H144   1.085       .  S
C142        C433   1.411   1_455  A
C142        C145   1.443       .  S
C145        N147   1.157       .  T
C146        N148   1.157       .  T
O149       Ni157   1.912       .  S
O149        C455   1.280       .  A
O150       Ni157   1.912       .  S
O150        C456   1.281       .  A
O151       Ni157   1.920       .  S
O151        C161   1.283       .  A
O152       Ni157   1.916       .  S
O152        C162   1.281       .  A
O153       Ni158   1.908       .  S
O153        C458   1.280   1_455  A
O154       Ni158   1.915       .  S
O154        C457   1.281   1_455  A
O155       Ni158   1.915       .  S
O155        C160   1.281       .  A
O156       Ni158   1.918       .  S
O156        C159   1.281   1_455  A
Ni157      Ni454   2.385       .  S
Ni158      Ni453   2.385   1_455  S
C159        O445   1.280       .  A
C159        C584   1.479       .  S
C160        O446   1.281   1_455  A
C160        C548   1.488       .  S
C161        O450   1.281       .  A
C161        C557   1.493       .  S
C162        O449   1.280       .  A
C162        C569   1.477       .  S
C163        C164   1.540       .  S
C163        C463   1.543       .  S
C163        C249   1.538       .  S
C164        H171   1.085       .  S
C165        C166   1.545       .  S
C165        C237   1.499       .  S
C166        C466   1.543       .  S
C166        C464   1.538       .  S
C166        H172   1.106       .  S
C167        C459   1.543       .  S
C167        H173   1.082       .  S
C168        C462   1.538       .  S
C168        C225   1.489       .  S
C169        H174   1.087       .  S
C169        C466   1.359       .  D
C170        C462   1.543       .  S
C170        C465   1.359       .  D
C170        C264   1.476   1_455  S
C175        C176   1.537   1_655  S
C175        C475   1.543       .  S
C175        C276   1.537       .  S
C176        H183   1.086       .  S
C177        C178   1.543   1_455  S
C177        C204   1.489       .  S
C178        C478   1.541       .  S
C178        C476   1.534       .  S
C178        H184   1.110       .  S
C179        C471   1.543       .  S
C179        H185   1.080       .  S
C180        C474   1.534       .  S
C180        C213   1.480       .  S
C181        H186   1.087       .  S
C181        C478   1.363       .  D
C182        C474   1.541       .  S
C182        C477   1.363       .  D
C182        C285   1.484       .  S
O187       Ni195   1.921       .  S
O187        C197   1.283       .  A
O188       Ni195   1.926   1_556  S
O188        C198   1.282       .  A
O189       Ni195   1.922   1_556  S
O189        C199   1.281       .  A
O190       Ni195   1.927       .  S
O190        C200   1.284       .  A
O191       Ni196   1.907   1_554  S
O192       Ni196   1.907       .  S
O193       Ni196   1.907       .  S
O194       Ni196   1.909   1_554  S
C197        C228   1.490       .  S
C198        C216   1.482       .  S
C199        C201   1.467       .  S
C200        C240   1.494       .  S
C201        C206   1.408       .  A
C202        C203   1.396       .  A
C202        H207   1.086       .  S
C203        C210   1.441   1_545  S
C204        C205   1.408       .  A
C205        C206   1.404       .  A
C205        H208   1.084       .  S
C206        C209   1.444       .  S
C209        N211   1.157       .  T
C210        N212   1.156       .  T
C213        C214   1.403       .  A
C214        C215   1.406       .  A
C214        H219   1.085       .  S
C215        C216   1.416       .  A
C215        C222   1.443       .  S
C217        C218   1.394       .  A
C217        H220   1.085       .  S
C218        C221   1.445       .  S
C221        N223   1.157       .  T
C222        N224   1.157       .  T
C225        C226   1.404       .  A
C226        C227   1.396       .  A
C226        H231   1.085       .  S
C227        C228   1.417       .  A
C227        C234   1.445       .  S
C229        C230   1.403       .  A
C229        H232   1.084       .  S
C230        C233   1.442       .  S
C233        N235   1.157       .  T
C234        N236   1.157       .  T
C237        C242   1.416       .  A
C238        C239   1.398       .  A
C238        H243   1.084       .  S
C239        C246   1.445       .  S
C240        C241   1.407       .  A
C241        C242   1.404       .  A
C241        H244   1.084       .  S
C242        C245   1.442       .  S
C245        N247   1.157       .  T
C246        N248   1.158       .  T
C249        C546   1.412       .  A
C249        C254   1.420       .  A
C250        C545   1.413       .  A
C250        C251   1.400       .  A
C250        H255   1.078       .  S
C251        C548   1.413       .  A
C251        C258   1.445       .  S
C252        C456   1.488       .  S
C252        C547   1.413       .  A
C252        C253   1.404       .  A
C253        C254   1.399       .  A
C253        H256   1.085       .  S
C254        C257   1.445       .  S
C257        N259   1.157       .  T
C258        N260   1.157       .  T
C261        C457   1.493       .  S
C261        C558   1.409       .  A
C261        C266   1.420   1_655  A
C262        C557   1.409       .  A
C262        C263   1.401       .  A
C262        H267   1.084       .  S
C263        C560   1.408       .  A
C263        C270   1.444       .  S
C264        C559   1.408       .  A
C264        C265   1.398   1_655  A
C265        C266   1.401       .  A
C265        H268   1.084       .  S
C266        C269   1.444       .  S
C269        N271   1.157       .  T
C270        N272   1.157       .  T
C273        C458   1.477       .  S
C273        C274   1.399   1_655  A
C273        C574   1.409       .  A
C274        C275   1.395       .  A
C274        H279   1.085       .  S
C275        C276   1.422   1_455  A
C275        C282   1.444       .  S
C276        C573   1.414       .  A
C277        C572   1.414       .  A
C277        C278   1.401       .  A
C277        H280   1.074       .  S
C278        C569   1.409       .  A
C278        C281   1.445       .  S
C281        N283   1.157       .  T
C282        N284   1.157       .  T
C285        C286   1.405       .  A
C285        C586   1.411       .  A
C286        C287   1.395       .  A
C286        H291   1.085       .  S
C287        C288   1.411       .  A
C287        C294   1.445       .  S
C288        C455   1.479       .  S
C288        C585   1.406       .  A
C289        C584   1.406   1_455  A
C289        C290   1.403       .  A
C289        H292   1.085       .  S
C290        C581   1.411   1_455  A
C290        C293   1.443       .  S
C293        N295   1.157       .  T
C294        N296   1.157       .  T
O297       Ni305   1.911       .  S
O298       Ni305   1.912       .  S
O299       Ni305   1.920       .  S
O299        C309   1.283       .  A
O300       Ni305   1.915       .  S
O300        C310   1.281       .  A
O301       Ni306   1.908       .  S
O302       Ni306   1.915       .  S
O303       Ni306   1.915       .  S
O303        C308   1.281       .  A
O304       Ni306   1.918       .  S
O304        C307   1.281       .  A
C311        C312   1.540   1_455  S
C311        C465   1.525       .  S
C311        C397   1.538       .  S
C312        H319   1.085       .  S
C312        C461   1.373       .  D
C313        C314   1.545   1_655  S
C313        C460   1.373   1_545  D
C313        C385   1.499       .  S
C314        H320   1.106       .  S
C315        H321   1.082       .  S
C315        C464   1.367       .  D
C316        C463   1.367   1_545  D
C316        C373   1.489       .  S
C317        C459   1.525   1_545  S
C317        H322   1.087       .  S
C318        C412   1.476       .  S
C323        C324   1.537       .  S
C323        C477   1.528       .  S
C323        C424   1.537       .  S
C324        H331   1.086       .  S
C324        C473   1.369       .  D
C325        C326   1.543       .  S
C325        C472   1.369   1_545  D
C325        C352   1.489       .  S
C326        H332   1.110       .  S
C327        H333   1.080       .  S
C327        C476   1.366       .  D
C328        C475   1.366   1_545  D
C328        C361   1.480       .  S
C329        C471   1.528       .  S
C329        H334   1.087       .  S
C330        C433   1.485       .  S
O335       Ni343   1.921       .  S
O335        C345   1.283       .  A
O336       Ni343   1.926   1_556  S
O336        C346   1.282       .  A
O337       Ni343   1.923   1_556  S
O337        C347   1.281       .  A
O338       Ni343   1.927       .  S
O338        C348   1.284       .  A
O339       Ni344   1.907   1_554  S
O339        C496   1.279       .  A
O340       Ni344   1.907       .  S
O340        C495   1.278       .  A
O341       Ni344   1.906       .  S
O341        C494   1.280       .  A
O342       Ni344   1.909   1_554  S
O342        C493   1.280       .  A
Ni343      Ni492   2.385   1_544  S
Ni344      Ni491   2.385   1_556  S
C345        O490   1.280   1_545  A
C345        C376   1.490       .  S
C346        O489   1.280   1_545  A
C346        C364   1.482       .  S
C347        O488   1.278   1_545  A
C347        C349   1.467       .  S
C348        O487   1.279   1_545  A
C348        C388   1.494       .  S
C349        C498   1.396       .  A
C349        C354   1.408       .  A
C350        C497   1.396       .  A
C350        C351   1.396       .  A
C350        H355   1.086       .  S
C351        C500   1.415       .  A
C351        C358   1.441       .  S
C352        C499   1.415       .  A
C352        C353   1.408       .  A
C353        C354   1.404       .  A
C353        H356   1.084       .  S
C354        C357   1.444       .  S
C357        N359   1.157       .  T
C358        N360   1.156       .  T
C361        C362   1.403       .  A
C361        C514   1.409   1_545  A
C362        C363   1.406       .  A
C362        H367   1.085       .  S
C363        C364   1.416       .  A
C363        C370   1.443       .  S
C364        C513   1.404   1_545  A
C365        C512   1.404       .  A
C365        C366   1.394       .  A
C365        H368   1.085       .  S
C366        C509   1.409       .  A
C366        C369   1.445       .  S
C369        N371   1.157       .  T
C370        N372   1.157       .  T
C373        C374   1.404   1_545  A
C373        C526   1.410       .  A
C374        C375   1.396       .  A
C374        H379   1.085       .  S
C375        C376   1.417   1_565  A
C375        C382   1.445       .  S
C376        C525   1.408       .  A
C377        C524   1.408       .  A
C377        C378   1.403       .  A
C377        H380   1.084       .  S
C378        C521   1.410       .  A
C378        C381   1.442       .  S
C381        N383   1.157       .  T
C382        N384   1.157       .  T
C385        C534   1.406   1_545  A
C385        C390   1.416       .  A
C386        C533   1.406       .  A
C386        C387   1.398       .  A
C386        H391   1.084       .  S
C387        C536   1.418       .  A
C387        C394   1.445       .  S
C388        C535   1.418   1_545  A
C388        C389   1.407       .  A
C389        C390   1.404       .  A
C389        H392   1.084       .  S
C390        C393   1.442       .  S
C393        N395   1.157       .  T
C394        N396   1.158       .  T
C397        C402   1.420   1_455  A
C398        C399   1.400       .  A
C398        H403   1.078       .  S
C399        C406   1.445       .  S
C400        C401   1.404   1_455  A
C401        C402   1.399       .  A
C401        H404   1.085       .  S
C402        C405   1.445       .  S
C405        N407   1.157       .  T
C406        N408   1.157       .  T
C409        C414   1.420       .  A
C410        C411   1.401       .  A
C410        H415   1.084       .  S
C411        C418   1.444       .  S
C412        C413   1.398       .  A
C413        C414   1.401       .  A
C413        H416   1.084       .  S
C414        C417   1.444       .  S
C417        N419   1.157       .  T
C418        N420   1.157       .  T
C421        C422   1.399       .  A
C422        C423   1.395       .  A
C422        H427   1.085       .  S
C423        C424   1.422       .  A
C423        C430   1.444       .  S
C425        C426   1.401       .  A
C425        H428   1.074       .  S
C426        C429   1.445       .  S
C429        N431   1.157       .  T
C430        N432   1.157       .  T
C433        C434   1.405       .  A
C434        C435   1.395       .  A
C434        H439   1.085       .  S
C435        C436   1.411       .  A
C435        C442   1.445       .  S
C437        C438   1.403       .  A
C437        H440   1.085       .  S
C438        C441   1.443       .  S
C441        N443   1.157       .  T
C442        N444   1.157       .  T
O445       Ni453   1.912       .  S
O446       Ni453   1.912       .  S
O447       Ni453   1.920       .  S
O447        C457   1.283       .  A
O448       Ni453   1.915       .  S
O448        C458   1.281       .  A
O449       Ni454   1.908       .  S
O450       Ni454   1.915       .  S
O451       Ni454   1.915       .  S
O451        C456   1.281       .  A
O452       Ni454   1.918       .  S
O452        C455   1.281       .  A
C459        C460   1.540   1_455  S
C459        C545   1.538       .  S
C460        H467   1.085       .  S
C461        C462   1.545   1_655  S
C461        C533   1.499       .  S
C462        H468   1.106       .  S
C463        H469   1.082       .  S
C464        C521   1.489       .  S
C465        H470   1.087       .  S
C466        C560   1.476       .  S
C471        C472   1.537       .  S
C471        C572   1.537       .  S
C472        H479   1.086       .  S
C473        C474   1.543       .  S
C473        C500   1.489       .  S
C474        H480   1.110       .  S
C475        H481   1.080       .  S
C476        C509   1.480       .  S
C477        H482   1.087       .  S
C478        C581   1.484       .  S
O483       Ni491   1.921       .  S
O483        C493   1.283       .  A
O484       Ni491   1.926   1_556  S
O484        C494   1.282       .  A
O485       Ni491   1.922   1_556  S
O485        C495   1.281       .  A
O486       Ni491   1.927       .  S
O486        C496   1.284       .  A
O487       Ni492   1.907   1_554  S
O488       Ni492   1.907       .  S
O489       Ni492   1.907       .  S
O490       Ni492   1.909   1_554  S
C493        C524   1.490       .  S
C494        C512   1.482       .  S
C495        C497   1.467       .  S
C496        C536   1.494       .  S
C497        C502   1.408       .  A
C498        C499   1.396       .  A
C498        H503   1.086   1_545  S
C499        C506   1.441   1_545  S
C500        C501   1.408       .  A
C501        C502   1.404       .  A
C501        H504   1.084       .  S
C502        C505   1.444       .  S
C505        N507   1.157       .  T
C506        N508   1.156       .  T
C509        C510   1.403       .  A
C510        C511   1.406       .  A
C510        H515   1.085       .  S
C511        C512   1.416       .  A
C511        C518   1.443       .  S
C513        C514   1.394       .  A
C513        H516   1.085       .  S
C514        C517   1.445       .  S
C517        N519   1.157       .  T
C518        N520   1.157       .  T
C521        C522   1.404       .  A
C522        C523   1.396       .  A
C522        H527   1.085       .  S
C523        C524   1.417       .  A
C523        C530   1.445       .  S
C525        C526   1.403       .  A
C525        H528   1.084       .  S
C526        C529   1.442       .  S
C529        N531   1.157       .  T
C530        N532   1.157       .  T
C533        C538   1.416       .  A
C534        C535   1.398       .  A
C534        H539   1.084       .  S
C535        C542   1.445       .  S
C536        C537   1.407       .  A
C537        C538   1.404       .  A
C537        H540   1.084       .  S
C538        C541   1.442       .  S
C541        N543   1.157       .  T
C542        N544   1.158       .  T
C545        C550   1.420   1_455  A
C546        C547   1.400       .  A
C546        H551   1.078       .  S
C547        C554   1.445       .  S
C548        C549   1.404   1_455  A
C549        C550   1.399       .  A
C549        H552   1.085       .  S
C550        C553   1.445       .  S
C553        N555   1.157       .  T
C554        N556   1.157       .  T
C557        C562   1.420       .  A
C558        C559   1.401       .  A
C558        H563   1.084       .  S
C559        C566   1.444       .  S
C560        C561   1.398       .  A
C561        C562   1.401       .  A
C561        H564   1.084       .  S
C562        C565   1.444       .  S
C565        N567   1.157       .  T
C566        N568   1.157       .  T
C569        C570   1.399       .  A
C570        C571   1.395       .  A
C570        H575   1.085       .  S
C571        C572   1.422       .  A
C571        C578   1.444       .  S
C573        C574   1.401       .  A
C573        H576   1.074       .  S
C574        C577   1.445       .  S
C577        N579   1.157       .  T
C578        N580   1.157       .  T
C581        C582   1.405       .  A
C582        C583   1.395       .  A
C582        H587   1.085       .  S
C583        C584   1.411       .  A
C583        C590   1.445       .  S
C585        C586   1.403       .  A
C585        H588   1.085       .  S
C586        C589   1.443       .  S
C589        N591   1.157       .  T
C590        N592   1.157       .  T
