geometry optimzed in LAMMPS
_audit_creation_date              2020-12-01 
_audit_creation_method            'lammps2cif' 
_symmetry_space_group_name_H-M    'P1' 
_symmetry_Int_Tables_number       1 
_symmetry_cell_setting            triclinic 
loop_ 
_symmetry_equiv_pos_as_xyz 
  x,y,z 
_cell_length_a                    46.66311908 
_cell_length_b                    46.30143229808209 
_cell_length_c                    46.27255968984431 
_cell_angle_alpha                 88.60655751359779 
_cell_angle_beta                  88.8917082795618 
_cell_angle_gamma                 88.47504372460291 
loop_ 
_atom_site_label 
_atom_site_type_symbol 
_atom_site_fract_x 
_atom_site_fract_y 
_atom_site_fract_z 
_atom_site_charge 
C1          C  0.08427028  0.12126320  0.14798345     0.86800
C2          C  0.10494771  0.14005833  0.13020325    -0.53500
C3          C  0.12377020  0.12549879  0.11244836     0.09700
C4          C  0.12069639  0.09215028  0.11509748     0.20700
C5          C  0.06990905  0.10263313  0.12576032    -0.54200
C6          C  0.08863284  0.08710193  0.10858464     0.09800
C7          C  0.10445372  0.10043997  0.16462677    -0.53700
C8          C  0.12367371  0.08511529  0.14795912     0.10400
H9          H  0.10519206  0.16331343  0.13252099     0.14900
H10         H  0.13582744  0.07975286  0.10103053     0.00600
H11         H  0.04680236  0.10201362  0.12356595     0.15200
H12         H  0.10584521  0.10002384  0.18792199     0.15000
C13         C  0.91013551  0.08623574  0.91529655     0.86800
C14         C  0.92918285  0.10568597  0.89625129    -0.53500
C15         C  0.94781288  0.12206764  0.91091281     0.09700
C16         C  0.94511948  0.11784635  0.94418741     0.20700
C17         C  0.93117221  0.06852335  0.93403970    -0.54200
C18         C  0.94952773  0.08467821  0.94927198     0.09800
C19         C  0.89509222  0.10742700  0.93606701    -0.53700
C20         C  0.91295930  0.12406506  0.95109773     0.10400
H21         H  0.92738577  0.10687312  0.87288435     0.14900
H22         H  0.95992238  0.13108661  0.95649680     0.00600
H23         H  0.93167923  0.04504876  0.93499813     0.15200
H24         H  0.87213813  0.11114408  0.93761881     0.15000
C25         C  0.89967355  0.91284783  0.08259676     0.86800
C26         C  0.88586907  0.93496703  0.10314294    -0.53500
C27         C  0.90472998  0.94928856  0.11936037     0.09700
C28         C  0.93634267  0.93991351  0.11382447     0.20700
C29         C  0.92165017  0.93011177  0.06473575    -0.54200
C30         C  0.94118636  0.94462396  0.08066111     0.09800
C31         C  0.91765662  0.89304747  0.10248999    -0.53700
C32         C  0.93715045  0.90674449  0.11854866     0.10400
H33         H  0.86301971  0.93841035  0.10625785     0.14900
H34         H  0.95150816  0.95090324  0.12767848     0.00600
H35         H  0.92076262  0.93090792  0.04138122     0.15200
H36         H  0.91478793  0.86985192  0.10401710     0.15000
C37         C  0.08798832  0.90655905  0.90617517     0.86800
C38         C  0.10668823  0.88610315  0.92501634    -0.53500
C39         C  0.12591584  0.89945723  0.94170134     0.09700
C40         C  0.12517665  0.93273695  0.93773082     0.20700
C41         C  0.07422660  0.92792026  0.92742023    -0.54200
C42         C  0.09342709  0.94176241  0.94400760     0.07000
C43         C  0.11013721  0.92404567  0.88873049    -0.53700
C44         C  0.12977377  0.93749351  0.90482055     0.10400
H45         H  0.10604012  0.86272682  0.92416773     0.14900
H46         H  0.14089897  0.94367543  0.95115043     0.00600
H47         H  0.05117642  0.93126893  0.92972163     0.15200
H48         H  0.11158600  0.92435274  0.86530580     0.15000
C49         C  0.02995904  0.01737311  0.02349541    -0.02200
N50         N  0.75575400  0.84210623  0.50440490    -0.27000
N51         N  0.78305562  0.84709177  0.49886134    -0.34900
C52         C  0.78742884  0.87548392  0.49929761     0.01300
C53         C  0.76164150  0.88957477  0.50558270     0.07400
C54         C  0.74185120  0.86771478  0.50846244    -0.05700
H55         H  0.80825798  0.88479283  0.49597105     0.08000
H56         H  0.71932799  0.87017918  0.51412031     0.09200
Cu57       Cu  0.81492299  0.81609393  0.49465140     0.44200
Cu58       Cu  0.74124994  0.79987570  0.50844322     0.42000
Cu59       Cu  0.80102881  0.74397228  0.51163353     0.43900
N60         N  0.84721648  0.78550216  0.49885398    -0.34400
N61         N  0.84247636  0.75825513  0.50582830    -0.28600
C62         C  0.86786135  0.74406374  0.50878659    -0.04700
C63         C  0.88948937  0.76356433  0.50353536     0.07500
C64         C  0.87552052  0.78963953  0.49723314     0.01300
H65         H  0.87039417  0.72145461  0.51491660     0.08900
H66         H  0.88495792  0.81030330  0.49235491     0.08000
N67         N  0.75760535  0.73588458  0.51544954    -0.35800
N68         N  0.73630933  0.75532710  0.51415425    -0.28000
C69         C  0.71142924  0.74182596  0.51913452    -0.03300
C70         C  0.71726654  0.71252429  0.52391936     0.05400
C71         C  0.74683610  0.70974457  0.52126291     0.03500
H72         H  0.69077717  0.75290173  0.52051416     0.08600
H73         H  0.75996427  0.69037423  0.52434537     0.07400
N74         N  0.52768148  0.83484697  0.74577450    -0.27000
N75         N  0.51974828  0.83965976  0.77274800    -0.34900
C76         C  0.51738386  0.86813047  0.77688302     0.01300
C77         C  0.52422769  0.88247405  0.75115231     0.07400
C78         C  0.53054200  0.86059771  0.73173799    -0.05700
H79         H  0.51142810  0.87738823  0.79742059     0.08000
H80         H  0.53728637  0.86324253  0.70935096     0.09200
Cu81       Cu  0.51452218  0.80750652  0.80345549     0.44200
Cu82       Cu  0.53458154  0.79231478  0.73270048     0.42000
Cu83       Cu  0.53159243  0.73331534  0.79126311     0.43900
N84         N  0.51498409  0.77662956  0.83592189    -0.34400
N85         N  0.52188321  0.74906604  0.83260542    -0.28600
C86         C  0.52207449  0.73592548  0.85905190    -0.04700
C87         C  0.51510874  0.75647423  0.87971843     0.07500
C88         C  0.51062678  0.78191120  0.86397133     0.01300
H89         H  0.52760629  0.71335951  0.86304686     0.08900
H90         H  0.50525068  0.80312399  0.87201613     0.08000
N91         N  0.53937057  0.72698493  0.74689516    -0.35800
N92         N  0.54004400  0.74782860  0.72673504    -0.28000
C93         C  0.54595472  0.73603526  0.70099156    -0.03300
C94         C  0.54931682  0.70630849  0.70465349     0.05400
C95         C  0.54499783  0.70144213  0.73417986     0.03500
H96         H  0.54851834  0.74860249  0.68116504     0.08600
H97         H  0.54626111  0.68089372  0.74575847     0.07400
N98         N  0.52005999  0.83209768  0.29219395    -0.27000
N99         N  0.52365064  0.83772307  0.26429173    -0.34900
C100        C  0.53001193  0.86550784  0.26001812     0.01300
C101        C  0.53044682  0.87858459  0.28656583     0.07400
C102        C  0.52397059  0.85669969  0.30659468    -0.05700
H103        H  0.53276120  0.87546363  0.23881586     0.08000
H104        H  0.52149606  0.85874091  0.32975892     0.09200
Cu105      Cu  0.51736334  0.80895419  0.23228084     0.44200
Cu106      Cu  0.50873393  0.79076801  0.30689327     0.42000
Cu107      Cu  0.49992325  0.73721751  0.24712635     0.43900
N108        N  0.51065245  0.78062061  0.19999452    -0.34400
N109        N  0.50438638  0.75329205  0.20467301    -0.28600
C110        C  0.50214388  0.74062975  0.17882882    -0.04700
C111        C  0.50722892  0.76125705  0.15707266     0.07500
C112        C  0.51250632  0.78632016  0.17153330     0.01300
H113        H  0.49732604  0.71815027  0.17603809     0.08900
H114        H  0.51777167  0.80724287  0.16235649     0.08000
N115        N  0.49573503  0.72857819  0.29165107    -0.35800
N116        N  0.49837841  0.74721572  0.31268482    -0.28000
C117        C  0.49291549  0.73360503  0.33823307    -0.03300
C118        C  0.48665373  0.70501141  0.33322875     0.05400
C119        C  0.48868694  0.70282899  0.30337834     0.03500
H120        H  0.49316412  0.74400211  0.35889469     0.08600
H121        H  0.48448797  0.68412064  0.29075302     0.07400
N122        N  0.82819683  0.52854120  0.27789682    -0.27000
N123        N  0.82915801  0.54054558  0.25172016    -0.34900
C124        C  0.85640707  0.54537809  0.24390820     0.01300
C125        C  0.87375272  0.53615816  0.26614531     0.07400
C126        C  0.85525020  0.52558878  0.28759129    -0.05700
H127        H  0.86318086  0.55371368  0.22289253     0.08000
H128        H  0.86102228  0.51531046  0.30797556     0.09200
Cu129      Cu  0.79490250  0.54574739  0.22500001     0.44200
Cu130      Cu  0.78954156  0.51511716  0.29660724     0.42000
Cu131      Cu  0.72874509  0.51762116  0.24409530     0.43900
N132        N  0.76416569  0.53997843  0.19491300    -0.34400
N133        N  0.73909932  0.52875458  0.20129365    -0.28600
C134        C  0.72531563  0.52449053  0.17642936    -0.04700
C135        C  0.74301039  0.53311448  0.15348435     0.07500
C136        C  0.76735391  0.54300191  0.16618591     0.01300
H137        H  0.70468820  0.51453701  0.17506102     0.08900
H138        H  0.78656352  0.55079923  0.15552249     0.08000
N139        N  0.72547007  0.50820009  0.28839099    -0.35800
N140        N  0.74672483  0.50668455  0.30700328    -0.28000
C141        C  0.73597455  0.49943525  0.33338792    -0.03300
C142        C  0.70655435  0.49648874  0.33141700     0.05400
C143        C  0.70085766  0.50217818  0.30250038     0.03500
H144        H  0.74872536  0.49658691  0.35256841     0.08600
H145        H  0.68036982  0.50134306  0.29207754     0.07400
O146        O  0.46896800  0.80164404  0.01818993    -0.72700
O147        O  0.55521792  0.79914256  0.01475413    -0.73600
O148        O  0.51133612  0.79905606  0.97360501    -0.62300
O149        O  0.51263603  0.80120916  0.05985727    -0.70700
O150        O  0.51188204  0.75330471  0.06267478    -0.70200
O151        O  0.51150822  0.75108923  0.97517632    -0.61500
O152        O  0.55474097  0.75121402  0.01742127    -0.74000
O153        O  0.46879270  0.75370709  0.02026568    -0.72800
Cu154      Cu  0.51205715  0.80189592  0.01658353     1.04600
Cu155      Cu  0.51175234  0.75061743  0.01902784     1.04300
C156        C  0.45530544  0.77812323  0.01975812     0.93500
C157        C  0.56851124  0.77465664  0.01489161     0.92700
C158        C  0.51143941  0.77498501  0.96070874     0.84800
C159        C  0.51200725  0.77775930  0.07494136     0.91100
O160        O  0.77880475  0.52765091  0.05513980    -0.72700
O161        O  0.77105209  0.52161348  0.96936959    -0.73600
O162        O  0.77376929  0.56825239  0.00854427    -0.62300
O163        O  0.77689210  0.48100739  0.01610500    -0.70700
O164        O  0.72949610  0.48135751  0.02119940    -0.70200
O165        O  0.72637041  0.56803104  0.01349063    -0.61500
O166        O  0.72365439  0.52190558  0.97425682    -0.74000
O167        O  0.73142490  0.52753476  0.06051358    -0.72800
Cu168      Cu  0.77678316  0.52464358  0.01208584     1.04600
Cu169      Cu  0.72609540  0.52468762  0.01755888     1.04300
C170        C  0.75634430  0.52863707  0.07134911     0.93500
C171        C  0.74620975  0.52068073  0.95823065     0.92700
C172        C  0.74958140  0.58183848  0.00994707     0.84800
C173        C  0.75352336  0.46748440  0.01983410     0.91100
N174        N  0.77602731  0.70983967  0.00583402    -0.27000
N175        N  0.75016553  0.70666897  0.99543789    -0.34900
C176        C  0.74436110  0.67849843  0.99465612     0.01300
C177        C  0.76770126  0.66273300  0.00504399     0.07400
C178        C  0.78753486  0.68331808  0.01178118    -0.05700
H179        H  0.72427472  0.67032812  0.98748024     0.08000
H180        H  0.80843193  0.67930331  0.02101510     0.09200
Cu181      Cu  0.72172554  0.74011709  0.98636223     0.44200
Cu182      Cu  0.79215327  0.75097686  0.01259585     0.42000
Cu183      Cu  0.73637569  0.81033989  0.00852515     0.43900
N184        N  0.69014732  0.77140488  0.99131000    -0.34400
N185        N  0.69486928  0.79758078  0.00048725    -0.28600
C186        C  0.66938358  0.81094357  0.00613740    -0.04700
C187        C  0.64779999  0.79184945  0.00071726     0.07500
C188        C  0.66186968  0.76716570  0.99101628     0.01300
H189        H  0.66681262  0.83214999  0.01530584     0.08900
H190        H  0.65247815  0.74694022  0.98560490     0.08000
N191        N  0.77972467  0.81585774  0.01632798    -0.35800
N192        N  0.79973937  0.79505384  0.01773258    -0.28000
C193        C  0.82482476  0.80687766  0.02438262    -0.03300
C194        C  0.82041835  0.83645181  0.02752498     0.05400
C195        C  0.79153151  0.84119230  0.02212014     0.03500
H196        H  0.84452706  0.79459162  0.02795926     0.08600
H197        H  0.77959086  0.86149618  0.02297403     0.07400
N198        N  0.83998899  0.51809888  0.74339167    -0.27000
N199        N  0.84497404  0.50931653  0.77020171    -0.34900
C200        C  0.87324517  0.50763415  0.77454994     0.01300
C201        C  0.88724894  0.51566225  0.74914297     0.07400
C202        C  0.86547258  0.52205930  0.72969280    -0.05700
H203        H  0.88262115  0.50139247  0.79502470     0.08000
H204        H  0.86799884  0.52969295  0.70752736     0.09200
Cu205      Cu  0.81374695  0.50247220  0.80096663     0.44200
Cu206      Cu  0.79780972  0.52543995  0.72969341     0.42000
Cu207      Cu  0.74244927  0.52647589  0.79045163     0.43900
N208        N  0.78450298  0.50502921  0.83426943    -0.34400
N209        N  0.75793898  0.51506510  0.83150687    -0.28600
C210        C  0.74603828  0.51769229  0.85823629    -0.04700
C211        C  0.76650313  0.50890670  0.87837400     0.07500
C212        C  0.79038612  0.50099681  0.86227858     0.01300
H213        H  0.72479239  0.52661948  0.86264598     0.08900
H214        H  0.81121534  0.49442195  0.87039288     0.08000
N215        N  0.73423235  0.53415755  0.74645402    -0.35800
N216        N  0.75353059  0.53286615  0.72504999    -0.28000
C217        C  0.74019529  0.53829722  0.69985170    -0.03300
C218        C  0.71122637  0.54352677  0.70546229     0.05400
C219        C  0.70834853  0.54083632  0.73527350     0.03500
H220        H  0.75103024  0.53927829  0.67898060     0.08600
H221        H  0.68880404  0.54347191  0.74799727     0.07400
N222        N  0.28966210  0.84129354  0.52859711    -0.27000
N223        N  0.26532302  0.84656133  0.54273932    -0.34900
C224        C  0.26075391  0.87520325  0.54438748     0.01300
C225        C  0.28343641  0.88878798  0.53062280     0.07400
C226        C  0.30152475  0.86665283  0.52108693    -0.05700
H227        H  0.24179218  0.88519821  0.55403671     0.08000
H228        H  0.32121410  0.86883343  0.50859082     0.09200
Cu229      Cu  0.23673634  0.81517581  0.55394581     0.44200
Cu230      Cu  0.30306243  0.79960291  0.51819347     0.42000
Cu231      Cu  0.24741981  0.74445064  0.52540840     0.43900
N232        N  0.20383282  0.78796704  0.54685098    -0.34400
N233        N  0.20686771  0.76220475  0.53534183    -0.28600
C234        C  0.18062715  0.75291001  0.52877398    -0.04700
C235        C  0.16050617  0.77421664  0.53637360     0.07500
C236        C  0.17604467  0.79591814  0.54771738     0.01300
H237        H  0.17673914  0.73316239  0.51763596     0.08900
H238        H  0.16793134  0.81687809  0.55438450     0.08000
N239        N  0.29059920  0.73580235  0.51507033    -0.35800
N240        N  0.31031604  0.75571441  0.51172424    -0.28000
C241        C  0.33540705  0.74287821  0.50387642    -0.03300
C242        C  0.33153400  0.71339340  0.50248360     0.05400
C243        C  0.30281266  0.70977693  0.50971463     0.03500
H244        H  0.35501650  0.75427715  0.49951292     0.08600
H245        H  0.29132437  0.68978389  0.51016833     0.07400
O246        O  0.98657489  0.79607661  0.50865770    -0.72700
O247        O  0.07119575  0.78422780  0.51791254    -0.73600
O248        O  0.03404216  0.79039110  0.46980701    -0.62300
O249        O  0.02354586  0.79006497  0.55663309    -0.70700
O250        O  0.01800429  0.74257768  0.55641998    -0.70200
O251        O  0.02966625  0.74272304  0.47097138    -0.61500
O252        O  0.06638460  0.73665803  0.51868432    -0.74000
O253        O  0.98139989  0.74853603  0.50870252    -0.72800
Cu254      Cu  0.02905435  0.79189110  0.51322838     1.04600
Cu255      Cu  0.02369821  0.74099832  0.51368522     1.04300
C256        C  0.97062767  0.77419417  0.50730133     0.93500
C257        C  0.08218107  0.75867016  0.51995042     0.92700
C258        C  0.03346075  0.76634576  0.45683478     0.84800
C259        C  0.01889173  0.76613141  0.57006850     0.91100
O260        O  0.01854832  0.56474659  0.73269364    -0.72700
O261        O  0.02775327  0.47848843  0.73639021    -0.73600
O262        O  0.98032848  0.51829751  0.73771046    -0.62300
O263        O  0.06609323  0.52510053  0.73065818    -0.70700
O264        O  0.06880236  0.52642383  0.77842908    -0.70200
O265        O  0.98339369  0.51902810  0.78550902    -0.61500
O266        O  0.03053166  0.47921675  0.78421478    -0.74000
O267        O  0.02139511  0.56600077  0.78048740    -0.72800
Cu268      Cu  0.02312460  0.52158719  0.73270147     1.04600
Cu269      Cu  0.02616696  0.52268867  0.78383382     1.04300
C270        C  0.01841229  0.57898074  0.75599572     0.93500
C271        C  0.03025554  0.46520605  0.76077710     0.92700
C272        C  0.96839011  0.51764690  0.76279478     0.84800
C273        C  0.08092206  0.52718309  0.75338777     0.91100
N274        N  0.01361182  0.70680560  0.78096464    -0.27000
N275        N  0.00199367  0.70328864  0.75555682    -0.34900
C276        C  0.00070839  0.67501486  0.75032194     0.01300
C277        C  0.01217269  0.65969848  0.77359631     0.07400
C278        C  0.01995501  0.68055215  0.79278296    -0.05700
H279        H  0.99296089  0.66650821  0.73045984     0.08000
H280        H  0.03046899  0.67692798  0.81323623     0.09200
Cu281      Cu  0.99385906  0.73653612  0.72648147     0.44200
Cu282      Cu  0.02188859  0.74784478  0.79569335     0.42000
Cu283      Cu  0.02407535  0.80531681  0.73885517     0.43900
N284        N  0.00269696  0.76613156  0.69400414    -0.34400
N285        N  0.01521581  0.79096178  0.69779225    -0.28600
C286        C  0.02179954  0.80276205  0.67164818    -0.04700
C287        C  0.01317667  0.78421021  0.65059579     0.07500
C288        C  0.00100019  0.76132172  0.66568176     0.01300
H289        H  0.03302868  0.82273864  0.66823395     0.08900
H290        H  0.99255317  0.74188405  0.65702702     0.08000
N291        N  0.02798546  0.81216927  0.78291262    -0.35800
N292        N  0.02697839  0.79159600  0.80322850    -0.28000
C293        C  0.03043178  0.80347604  0.82912084    -0.03300
C294        C  0.03385179  0.83302420  0.82514755     0.05400
C295        C  0.03216053  0.83761467  0.79542864     0.03500
H296        H  0.03125902  0.79114415  0.84923750     0.08600
H297        H  0.03446511  0.85780565  0.78349992     0.07400
N298        N  0.20574443  0.53797897  0.76036790    -0.27000
N299        N  0.20325347  0.54765447  0.78692075    -0.34900
C300        C  0.17542552  0.55003948  0.79450853     0.01300
C301        C  0.15933865  0.54156399  0.77167941     0.07400
C302        C  0.17923017  0.53412386  0.75016730    -0.05700
H303        H  0.16752925  0.55592533  0.81576037     0.08000
H304        H  0.17490267  0.52509123  0.72941251     0.09200
Cu305      Cu  0.23734815  0.55150069  0.81390415     0.44200
Cu306      Cu  0.24592520  0.52710136  0.74254662     0.42000
Cu307      Cu  0.30474770  0.51808816  0.79626920     0.43900
N308        N  0.26753739  0.54081671  0.84433174    -0.34400
N309        N  0.29211586  0.52709508  0.83876341    -0.28600
C310        C  0.30368172  0.51815731  0.86410747    -0.04700
C311        C  0.28502803  0.52627928  0.88642731     0.07500
C312        C  0.26265411  0.54098088  0.87292973     0.01300
H313        H  0.32302179  0.50489248  0.86603203     0.08900
H314        H  0.24315310  0.54951625  0.88286393     0.08000
N315        N  0.30936850  0.51216261  0.75172473    -0.35800
N316        N  0.28858146  0.51557919  0.73275097    -0.28000
C317        C  0.29919123  0.50947010  0.70629014    -0.03300
C318        C  0.32808687  0.50176925  0.70843478     0.05400
C319        C  0.33362953  0.50377058  0.73769565     0.03500
H320        H  0.28640427  0.51004575  0.68704735     0.08600
H321        H  0.35369445  0.49898037  0.74830543     0.07400
N322        N  0.74969397  0.21065662  0.53970570    -0.27000
N323        N  0.77658938  0.20547790  0.54685789    -0.34900
C324        C  0.78206677  0.17694256  0.54750437     0.01300
C325        C  0.75735744  0.16314221  0.54023347     0.07400
C326        C  0.73708535  0.18519826  0.53575487    -0.05700
H327        H  0.80298981  0.16729790  0.55160490     0.08000
H328        H  0.71539204  0.18297361  0.52844325     0.09200
Cu329      Cu  0.80622808  0.23706905  0.54947541     0.44200
Cu330      Cu  0.73474339  0.25281064  0.53179922     0.42000
Cu331      Cu  0.79118612  0.30860037  0.52246379     0.43900
N332        N  0.83727077  0.26653322  0.54046808    -0.34400
N333        N  0.83262021  0.29280813  0.52958175    -0.28600
C334        C  0.85816047  0.30489080  0.52377619    -0.04700
C335        C  0.87965508  0.28494466  0.53123688     0.07500
C336        C  0.86546268  0.26101053  0.54187340     0.01300
H337        H  0.86087871  0.32620686  0.51417119     0.08900
H338        H  0.87463120  0.24063260  0.54955935     0.08000
N339        N  0.74729409  0.31626154  0.51839864    -0.35800
N340        N  0.72741926  0.29653546  0.52196084    -0.28000
C341        C  0.70166930  0.30888817  0.51646456    -0.03300
C342        C  0.70526176  0.33781377  0.50900549     0.05400
C343        C  0.73458175  0.34160135  0.51053582     0.03500
H344        H  0.68197113  0.29711456  0.51672433     0.08600
H345        H  0.74612297  0.36107539  0.50548009     0.07400
O346        O  0.75310670  0.98359001  0.51656130    -0.72700
O347        O  0.75235222  0.07015744  0.52670374    -0.73600
O348        O  0.75319855  0.03296652  0.47876678    -0.62300
O349        O  0.75228279  0.02094996  0.56437893    -0.70700
O350        O  0.79986651  0.02069861  0.56473524    -0.70200
O351        O  0.80080664  0.03168063  0.47756697    -0.61500
O352        O  0.79996923  0.06880890  0.52572252    -0.74000
O353        O  0.80069568  0.98349085  0.51673592    -0.72800
Cu354      Cu  0.75106917  0.02694492  0.52158466     1.04600
Cu355      Cu  0.80199841  0.02612773  0.52115451     1.04300
C356        C  0.77730446  0.97000722  0.51517852     0.93500
C357        C  0.77623617  0.08296128  0.52797754     0.92700
C358        C  0.77687774  0.03417924  0.46458172     0.84800
C359        C  0.77571054  0.01910186  0.57815800     0.91100
O360        O  0.48582240  0.02540759  0.74238226    -0.72700
O361        O  0.57115889  0.01789709  0.74128274    -0.73600
O362        O  0.52603627  0.97784993  0.74195946    -0.62300
O363        O  0.53093239  0.06553226  0.74176288    -0.70700
O364        O  0.53072720  0.06330750  0.78974471    -0.70200
O365        O  0.52560680  0.97765567  0.78995087    -0.61500
O366        O  0.57139471  0.01663024  0.78928029    -0.74000
O367        O  0.48490286  0.02403092  0.79039840    -0.72800
Cu368      Cu  0.52849469  0.02173297  0.74013132     1.04600
Cu369      Cu  0.52814741  0.02041002  0.79148082     1.04300
C370        C  0.47184443  0.02576432  0.76635167     0.93500
C371        C  0.58478542  0.01585312  0.76491961     0.92700
C372        C  0.52511976  0.96411148  0.76630076     0.84800
C373        C  0.53156577  0.07804999  0.76609997     0.91100
N374        N  0.71168329  0.00622413  0.79017326    -0.27000
N375        N  0.70794722  0.99962522  0.76296725    -0.34900
C376        C  0.67988101  0.99965958  0.75747860     0.01300
C377        C  0.66484839  0.00671044  0.78252165     0.07400
C378        C  0.68573186  0.01052799  0.80296040    -0.05700
H379        H  0.67135196  0.99563036  0.73644240     0.08000
H380        H  0.68232897  0.01702704  0.82509490     0.09200
Cu381      Cu  0.74086246  0.99508248  0.73329959     0.44200
Cu382      Cu  0.75278233  0.01130218  0.80562861     0.42000
Cu383      Cu  0.81171674  0.01573340  0.74912523     0.43900
N384        N  0.77183820  0.00161220  0.70198471    -0.34400
N385        N  0.79799522  0.01026574  0.70685638    -0.28600
C386        C  0.81122960  0.01557523  0.68110333    -0.04700
C387        C  0.79218407  0.01019045  0.65924067     0.07500
C388        C  0.76756270  0.00117237  0.67349571     0.01300
H389        H  0.83266760  0.02371713  0.67847658     0.08900
H390        H  0.74749185  0.99547737  0.66414606     0.08000
N391        N  0.81684500  0.01939282  0.79376414    -0.35800
N392        N  0.79594243  0.01770188  0.81349328    -0.28000
C393        C  0.80655276  0.02309784  0.83955264    -0.03300
C394        C  0.83550116  0.02859689  0.83635407     0.05400
C395        C  0.84126192  0.02584018  0.80700119     0.03500
H396        H  0.79369781  0.02401531  0.85921965     0.08600
H397        H  0.86134971  0.02990762  0.79576712     0.07400
N398        N  0.52547765  0.20845941  0.74675003    -0.27000
N399        N  0.53097547  0.20223661  0.77406791    -0.34900
C400        C  0.53468763  0.17365950  0.77782436     0.01300
C401        C  0.53122980  0.16064589  0.75152638     0.07400
C402        C  0.52554421  0.18348945  0.73215726    -0.05700
H403        H  0.53852934  0.16338124  0.79864408     0.08000
H404        H  0.52074205  0.18193824  0.70947595     0.09200
Cu405      Cu  0.52934762  0.23184936  0.80626053     0.44200
Cu406      Cu  0.51608028  0.25130825  0.73396646     0.42000
Cu407      Cu  0.50452619  0.30409730  0.79458029     0.43900
N408        N  0.52199256  0.25994133  0.83926714    -0.34400
N409        N  0.51234459  0.28681793  0.83580165    -0.28600
C410        C  0.50933760  0.29868148  0.86208948    -0.04700
C411        C  0.51748641  0.27806078  0.88286229     0.07500
C412        C  0.52535497  0.25380722  0.86741768     0.01300
H413        H  0.50170466  0.32056895  0.86583485     0.08900
H414        H  0.53292496  0.23301372  0.87569917     0.08000
N415        N  0.50098146  0.31389991  0.75047783    -0.35800
N416        N  0.50566628  0.29549316  0.72928249    -0.28000
C417        C  0.50106949  0.30944048  0.70389200    -0.03300
C418        C  0.49291847  0.33791486  0.70909905     0.05400
C419        C  0.49309456  0.33984965  0.73895503     0.03500
H420        H  0.50237133  0.29910870  0.68318447     0.08600
H421        H  0.48745904  0.35860984  0.75154659     0.07400
O422        O  0.23710209  0.51008046  0.97845366    -0.72700
O423        O  0.23273827  0.49916126  0.06477658    -0.73600
O424        O  0.23778960  0.54739222  0.02585433    -0.62300
O425        O  0.23082829  0.46161037  0.01742385    -0.70700
O426        O  0.27819107  0.45604336  0.01779335    -0.70200
O427        O  0.28515587  0.54193877  0.02719108    -0.61500
O428        O  0.28010563  0.49362417  0.06587947    -0.74000
O429        O  0.28452126  0.50496299  0.97919181    -0.72800
Cu430      Cu  0.23298838  0.50467348  0.02155148     1.04600
Cu431      Cu  0.28366416  0.49886605  0.02253285     1.04300
C432        C  0.26145260  0.50997889  0.96530113     0.93500
C433        C  0.25575801  0.49491968  0.07897818     0.92700
C434        C  0.26255781  0.55818299  0.02781678     0.84800
C435        C  0.25326165  0.44525703  0.01647050     0.91100
N436        N  0.33056184  0.76614629  0.02345609    -0.27000
N437        N  0.33326989  0.73948713  0.03400553    -0.34900
C438        C  0.36109327  0.73241477  0.03695478     0.01300
C439        C  0.37694173  0.75574729  0.02806685     0.07400
C440        C  0.35696599  0.77697133  0.01964067    -0.05700
H441        H  0.36920685  0.71140531  0.04418281     0.08000
H442        H  0.36124644  0.79814677  0.01042874     0.09200
Cu443      Cu  0.29989941  0.71218184  0.04051714     0.44200
Cu444      Cu  0.29050013  0.78399434  0.01290248     0.42000
Cu445      Cu  0.23069474  0.73107893  0.01621916     0.43900
N446        N  0.26887224  0.68223940  0.03670724    -0.34400
N447        N  0.24294117  0.68829740  0.02702955    -0.28600
C448        C  0.22940328  0.66316467  0.02378798    -0.04700
C449        C  0.24809207  0.64045632  0.03148235     0.07500
C450        C  0.27279163  0.65358135  0.03973490     0.01300
H451        H  0.20814851  0.66143993  0.01515970     0.08900
H452        H  0.29274178  0.64327628  0.04634418     0.08000
N453        N  0.22644730  0.77539556  0.00581403    -0.35800
N454        N  0.24756963  0.79399309  0.00429049    -0.28000
C455        C  0.23681769  0.82022287  0.99627848    -0.03300
C456        C  0.20749190  0.81831377  0.99271513     0.05400
C457        C  0.20182116  0.78949160  0.99895333     0.03500
H458        H  0.24955156  0.83928321  0.99330677     0.08600
H459        H  0.18134737  0.77919190  0.99797160     0.07400
O460        O  0.05033246  0.51578957  0.24769518    -0.72700
O461        O  0.96497612  0.52543138  0.25738863    -0.73600
O462        O  0.01134787  0.56393168  0.25250128    -0.62300
O463        O  0.00398584  0.47740748  0.25197723    -0.70700
O464        O  0.00797371  0.47597183  0.29974709    -0.70200
O465        O  0.01568579  0.56162572  0.30021573    -0.61500
O466        O  0.96918115  0.52339353  0.30510075    -0.74000
O467        O  0.05449814  0.51391504  0.29542834    -0.72800
Cu468      Cu  0.00750391  0.52075355  0.25067740     1.04600
Cu469      Cu  0.01199854  0.51869874  0.30174728     1.04300
C470        C  0.06584164  0.51312473  0.27010243     0.93500
C471        C  0.95359769  0.52572488  0.28277406     0.92700
C472        C  0.01474635  0.57632017  0.27653569     0.84800
C473        C  0.00474619  0.46314903  0.27596267     0.91100
N474        N  0.03009093  0.79063840  0.32816204    -0.27000
N475        N  0.03816400  0.76339948  0.33269707    -0.34900
C476        C  0.04240556  0.75851858  0.36091231     0.01300
C477        C  0.03657439  0.78391614  0.37529325     0.07400
C478        C  0.02901829  0.80397792  0.35379099    -0.05700
H479        H  0.04802786  0.73749638  0.37010786     0.08000
H480        H  0.02191280  0.82616459  0.35674634     0.09200
Cu481      Cu  0.03824509  0.73210966  0.30215730     0.44200
Cu482      Cu  0.01854900  0.80578751  0.28713490     0.42000
Cu483      Cu  0.00997957  0.74680003  0.23376186     0.43900
N484        N  0.02844450  0.69991403  0.27470916    -0.34400
N485        N  0.01730770  0.70473735  0.24902113    -0.28600
C486        C  0.01129855  0.67912978  0.23755368    -0.04700
C487        C  0.01883140  0.65734709  0.25733067     0.07500
C488        C  0.02973870  0.67146040  0.28055477     0.01300
H489        H  0.00144103  0.67658810  0.21682871     0.08900
H490        H  0.03757170  0.66204783  0.30059394     0.08000
N491        N  0.00496759  0.79094824  0.22521744    -0.35800
N492        N  0.00781035  0.81192632  0.24382612    -0.28000
C493        C  0.00177456  0.83743383  0.23037068    -0.03300
C494        C  0.99483678  0.83235651  0.20193272     0.05400
C495        C  0.99715601  0.80258176  0.19963264     0.03500
H496        H  0.00190090  0.85806057  0.24083169     0.08600
H497        H  0.99252744  0.78992036  0.18105008     0.07400
N498        N  0.27840272  0.49547532  0.20755612    -0.27000
N499        N  0.25233130  0.48592530  0.20383511    -0.34900
C500        C  0.24796549  0.48233507  0.17563790     0.01300
C501        C  0.27238628  0.49015216  0.16034918     0.07400
C502        C  0.29144567  0.49812062  0.18131581    -0.05700
H503        H  0.22785832  0.47570499  0.16703569     0.08000
H504        H  0.31264007  0.50655502  0.17761407     0.09200
Cu505      Cu  0.22113683  0.48323043  0.23552139     0.44200
Cu506      Cu  0.29240047  0.50681014  0.24861699     0.42000
Cu507      Cu  0.23432643  0.50810937  0.30513019     0.43900
N508        N  0.18868195  0.49193281  0.26479623    -0.34400
N509        N  0.19315516  0.50125578  0.29099838    -0.28600
C510        C  0.16763829  0.50754587  0.30377379    -0.04700
C511        C  0.14625396  0.50230390  0.28434956     0.07500
C512        C  0.16044489  0.49229062  0.25990502     0.01300
H513        H  0.16490443  0.51648866  0.32506798     0.08900
H514        H  0.15118203  0.48642845  0.23969219     0.08000
N515        N  0.27696757  0.51736109  0.31200782    -0.35800
N516        N  0.29786505  0.51706117  0.29221298    -0.28000
C517        C  0.32218091  0.52530876  0.30463295    -0.03300
C518        C  0.31628589  0.53123337  0.33349550     0.05400
C519        C  0.28737041  0.52587576  0.33721471     0.03500
H520        H  0.34245143  0.52770448  0.29321244     0.08600
H521        H  0.27453917  0.52826484  0.35676388     0.07400
O522        O  0.51839963  0.28251682  0.06424699    -0.72700
O523        O  0.52067617  0.28347122  0.97706553    -0.73600
O524        O  0.47719561  0.27973289  0.02014944    -0.62300
O525        O  0.56209375  0.28624420  0.02108668    -0.70700
O526        O  0.56766837  0.23846105  0.02193610    -0.70200
O527        O  0.48108836  0.23182039  0.02080797    -0.61500
O528        O  0.52580779  0.23563483  0.97830247    -0.74000
O529        O  0.52289496  0.23463855  0.06453751    -0.72800
Cu530      Cu  0.51945148  0.28463136  0.02064263     1.04600
Cu531      Cu  0.52456525  0.23343231  0.02143888     1.04300
C532        C  0.52014490  0.25828836  0.07803527     0.93500
C533        C  0.52346085  0.25949230  0.96404205     0.92700
C534        C  0.46563955  0.25507384  0.02006323     0.84800
C535        C  0.57834660  0.26364791  0.02166605     0.91100
N536        N  0.78515281  0.33900174  0.01894550    -0.27000
N537        N  0.75776028  0.34214181  0.02618825    -0.34900
C538        C  0.75080665  0.37028885  0.02834325     0.01300
C539        C  0.77497545  0.38615095  0.02213950     0.07400
C540        C  0.79647836  0.36554052  0.01643826    -0.05700
H541        H  0.72937096  0.37835632  0.03330348     0.08000
H542        H  0.81845085  0.36961800  0.01003629     0.09200
Cu543      Cu  0.72967054  0.30881567  0.02985964     0.44200
Cu544      Cu  0.80356015  0.29793916  0.01110849     0.42000
Cu545      Cu  0.75131331  0.23751359  0.01234625     0.43900
N546        N  0.70103140  0.27625626  0.02638375    -0.34400
N547        N  0.70823763  0.24954618  0.01937626    -0.28600
C548        C  0.68400914  0.23449070  0.01697953    -0.04700
C549        C  0.66061760  0.25289094  0.02256187     0.07500
C550        C  0.67245365  0.27912351  0.02858629     0.01300
H551        H  0.68339526  0.21209319  0.01092425     0.08900
H552        H  0.66135241  0.29918169  0.03374539     0.08000
N553        N  0.79575741  0.23288587  0.00577956    -0.35800
N554        N  0.81428944  0.25413170  0.00456445    -0.28000
C555        C  0.84070900  0.24280571  0.99880661    -0.03300
C556        C  0.83887456  0.21305295  0.99674199     0.05400
C557        C  0.81001506  0.20769702  0.00125982     0.03500
H558        H  0.85989498  0.25533048  0.99646326     0.08600
H559        H  0.79990005  0.18698488  0.00055215     0.07400
O560        O  0.53561506  0.97282877  0.29549281    -0.72700
O561        O  0.52522655  0.05999308  0.29418875    -0.73600
O562        O  0.48844336  0.01223817  0.29265281    -0.62300
O563        O  0.57313650  0.02078131  0.29723361    -0.70700
O564        O  0.57710324  0.02194418  0.24935070    -0.70200
O565        O  0.49089005  0.01319854  0.24467186    -0.61500
O566        O  0.52854240  0.06020111  0.24624730    -0.74000
O567        O  0.53929713  0.97452390  0.24757381    -0.72800
Cu568      Cu  0.53056794  0.01643336  0.29655969     1.04600
Cu569      Cu  0.53415499  0.01745536  0.24528635     1.04300
C570        C  0.53856289  0.96003270  0.27137979     0.93500
C571        C  0.52492086  0.07365422  0.26981561     0.92700
C572        C  0.47622692  0.01132675  0.26827722     0.84800
C573        C  0.58852557  0.02308757  0.27422561     0.91100
N574        N  0.80057570  0.03787946  0.33536949    -0.27000
N575        N  0.77372598  0.04639861  0.34035807    -0.34900
C576        C  0.76914784  0.04875284  0.36886033     0.01300
C577        C  0.79422145  0.04106621  0.38294259     0.07400
C578        C  0.81385813  0.03454166  0.36096424    -0.05700
H579        H  0.74851075  0.05444460  0.37840058     0.08000
H580        H  0.83572514  0.02666165  0.36347776     0.09200
Cu581      Cu  0.74210302  0.04979328  0.30987347     0.44200
Cu582      Cu  0.81583933  0.02904506  0.29372600     0.42000
Cu583      Cu  0.75863339  0.03301674  0.23813619     0.43900
N584        N  0.71053655  0.04402206  0.28012606    -0.34400
N585        N  0.71633163  0.03771035  0.25295522    -0.28600
C586        C  0.69151905  0.03276814  0.23964527    -0.04700
C587        C  0.66912507  0.03575772  0.25963362     0.07500
C588        C  0.68211568  0.04307641  0.28504919     0.01300
H589        H  0.68997489  0.02623950  0.21744636     0.08900
H590        H  0.67192719  0.04668565  0.30588215     0.08000
N591        N  0.80215543  0.02458372  0.23002041    -0.35800
N592        N  0.82247202  0.02226866  0.24960929    -0.28000
C593        C  0.84730337  0.01407598  0.23642710    -0.03300
C594        C  0.84249479  0.01131150  0.20712794     0.05400
C595        C  0.81360860  0.01820129  0.20402945     0.03500
H596        H  0.86721929  0.00987706  0.24753599     0.08600
H597        H  0.80129730  0.01721377  0.18453556     0.07400
N598        N  0.51707344  0.28418473  0.20558914    -0.27000
N599        N  0.50749012  0.25798241  0.20205624    -0.34900
C600        C  0.50615455  0.25267689  0.17383789     0.01300
C601        C  0.51540770  0.27674380  0.15846223     0.07400
C602        C  0.52195885  0.29651448  0.17927806    -0.05700
H603        H  0.49937100  0.23244686  0.16538849     0.08000
H604        H  0.53041706  0.31784982  0.17557383     0.09200
Cu605      Cu  0.50000301  0.22880117  0.23506353     0.44200
Cu606      Cu  0.52386811  0.29914620  0.24691467     0.42000
Cu607      Cu  0.51751412  0.24304615  0.30696515     0.43900
N608        N  0.50375085  0.19679987  0.26613173    -0.34400
N609        N  0.51082992  0.20124744  0.29309262    -0.28600
C610        C  0.51526912  0.17536015  0.30655249    -0.04700
C611        C  0.51119930  0.15383547  0.28675942     0.07500
C612        C  0.50366232  0.16839175  0.26146374     0.01300
H613        H  0.52252503  0.17243294  0.32852430     0.08900
H614        H  0.49961314  0.15929913  0.24067871     0.08000
N615        N  0.52512603  0.28688829  0.31214104    -0.35800
N616        N  0.52753165  0.30650118  0.29096399    -0.28000
C617        C  0.53335614  0.33207081  0.30238287    -0.03300
C618        C  0.53472450  0.32867534  0.33221338     0.05400
C619        C  0.52938564  0.29963039  0.33748362     0.03500
H620        H  0.53700722  0.35151222  0.28958939     0.08600
H621        H  0.52921821  0.28822100  0.35814193     0.07400
O622        O  0.25603128  0.03297008  0.56576424    -0.72700
O623        O  0.24858408  0.02817227  0.47913080    -0.73600
O624        O  0.24740175  0.98783903  0.52668125    -0.62300
O625        O  0.25805015  0.07357786  0.51755348    -0.70700
O626        O  0.30515413  0.06627175  0.51360470    -0.70200
O627        O  0.29446174  0.98077268  0.52171563    -0.61500
O628        O  0.29562444  0.02095316  0.47450679    -0.74000
O629        O  0.30306798  0.02580249  0.56093714    -0.72800
Cu630      Cu  0.25086475  0.03096564  0.52247618     1.04600
Cu631      Cu  0.30119289  0.02324180  0.51756059     1.04300
C632        C  0.28075868  0.02967472  0.57701399     0.93500
C633        C  0.27083040  0.02357208  0.46321425     0.92700
C634        C  0.26938435  0.97081269  0.52558992     0.84800
C635        C  0.28327265  0.08337955  0.51366639     0.91100
N636        N  0.26145286  0.02094210  0.70756539    -0.27000
N637        N  0.28784404  0.02949485  0.70247038    -0.34900
C638        C  0.29227729  0.03342495  0.67392178     0.01300
C639        C  0.26734951  0.02711249  0.65990042     0.07400
C640        C  0.24813175  0.01938559  0.68198467    -0.05700
H641        H  0.31239598  0.04009334  0.66426719     0.08000
H642        H  0.22633235  0.01257836  0.67953794     0.09200
Cu643      Cu  0.31723636  0.03324506  0.73446986     0.44200
Cu644      Cu  0.24758532  0.01125051  0.75009440     0.42000
Cu645      Cu  0.30311606  0.01186258  0.80821807     0.43900
N646        N  0.34832025  0.02936067  0.76513206    -0.34400
N647        N  0.34419798  0.02059284  0.79221565    -0.28600
C648        C  0.36996601  0.01794962  0.80497681    -0.04700
C649        C  0.39106180  0.02539785  0.78472982     0.07500
C650        C  0.37632459  0.03262098  0.75983037     0.01300
H651        H  0.37319377  0.01043615  0.82703093     0.08900
H652        H  0.38503810  0.03899778  0.73890555     0.08000
N653        N  0.25948700  0.00460604  0.81521032    -0.35800
N654        N  0.24017214  0.00373118  0.79459193    -0.28000
C655        C  0.21502611  0.99583834  0.80667786    -0.03300
C656        C  0.21837781  0.99203703  0.83619800     0.05400
C657        C  0.24685793  0.99764718  0.84083430     0.03500
H658        H  0.19592802  0.99184600  0.79465667     0.08600
H659        H  0.25805897  0.99493208  0.86101504     0.07400
O660        O  0.01509530  0.23718067  0.48481318    -0.72700
O661        O  0.01990451  0.24776834  0.57030164    -0.73600
O662        O  0.97484957  0.24254103  0.53094141    -0.62300
O663        O  0.06036340  0.24327611  0.52363278    -0.70700
O664        O  0.05820414  0.29090818  0.51667220    -0.70200
O665        O  0.97247390  0.29023350  0.52443894    -0.61500
O666        O  0.01813435  0.29541874  0.56353083    -0.74000
O667        O  0.01232676  0.28480140  0.47804387    -0.72800
Cu668      Cu  0.01765440  0.24104671  0.52772821     1.04600
Cu669      Cu  0.01526208  0.29203377  0.52047655     1.04300
C670        C  0.01252689  0.25928686  0.46799096     0.93500
C671        C  0.01969418  0.27319873  0.58040989     0.92700
C672        C  0.96019201  0.26614756  0.52867411     0.84800
C673        C  0.07273286  0.26718456  0.51847730     0.91100
N674        N  0.02272681  0.25399430  0.71018968    -0.27000
N675        N  0.03196055  0.28014864  0.70424611    -0.34900
C676        C  0.03273239  0.28481600  0.67555696     0.01300
C677        C  0.02356047  0.26019818  0.66255788     0.07400
C678        C  0.01755071  0.24094596  0.68517364    -0.05700
H679        H  0.03911625  0.30486932  0.66517741     0.08000
H680        H  0.00932832  0.21942422  0.68357483     0.09200
Cu681      Cu  0.03971537  0.30893200  0.73577810     0.44200
Cu682      Cu  0.01639955  0.24049452  0.75284463     0.42000
Cu683      Cu  0.01873240  0.29614544  0.81045196     0.43900
N684        N  0.03643189  0.34065677  0.76566685    -0.34400
N685        N  0.02784188  0.33732787  0.79288538    -0.28600
C686        C  0.02514251  0.36383211  0.80448720    -0.04700
C687        C  0.03217043  0.38445374  0.78328048     0.07500
C688        C  0.03935178  0.36870869  0.75913060     0.01300
H689        H  0.01766985  0.36789614  0.82633070     0.08900
H690        H  0.04539353  0.37676913  0.73782480     0.08000
N691        N  0.01140836  0.25182457  0.81772117    -0.35800
N692        N  0.01091204  0.23265268  0.79695563    -0.28000
C693        C  0.00511347  0.20660778  0.80860543    -0.03300
C694        C  0.00166314  0.20894510  0.83827454     0.05400
C695        C  0.00580857  0.23808844  0.84322856     0.03500
H696        H  0.00268897  0.18756347  0.79591809     0.08600
H697        H  0.00430803  0.24873324  0.86376398     0.07400
N698        N  0.27861924  0.20926530  0.49540293    -0.27000
N699        N  0.25316301  0.20776685  0.48365674    -0.34900
C700        C  0.24638293  0.18003186  0.48108241     0.01300
C701        C  0.26842263  0.16290112  0.49190665     0.07400
C702        C  0.28881484  0.18209712  0.50068109    -0.05700
H703        H  0.22576828  0.17289913  0.47416456     0.08000
H704        H  0.30848895  0.17684747  0.51185612     0.09200
Cu705      Cu  0.22499263  0.24229023  0.47938700     0.44200
Cu706      Cu  0.29438340  0.24909614  0.50703702     0.42000
Cu707      Cu  0.23834428  0.30830806  0.51299812     0.43900
N708        N  0.19291275  0.27136446  0.49035212    -0.34400
N709        N  0.19714460  0.29578161  0.50358277    -0.28600
C710        C  0.17146618  0.30740301  0.51157539    -0.04700
C711        C  0.15034816  0.28888736  0.50344861     0.07500
C712        C  0.16477836  0.26646369  0.48982580     0.01300
H713        H  0.16851049  0.32677183  0.52402535     0.08900
H714        H  0.15572239  0.24718298  0.48142198     0.08000
N715        N  0.28211925  0.31299172  0.51881318    -0.35800
N716        N  0.30197566  0.29212767  0.51662693    -0.28000
C717        C  0.32764245  0.30300369  0.52242103    -0.03300
C718        C  0.32393428  0.33207400  0.52861561     0.05400
C719        C  0.29472080  0.33753280  0.52603258     0.03500
H720        H  0.34746151  0.29036826  0.52257377     0.08600
H721        H  0.28316239  0.35763112  0.53006710     0.07400
N722        N  0.99727980  0.33599510  0.25200496    -0.27000
N723        N  0.98412292  0.34153282  0.27683336    -0.34900
C724        C  0.98287332  0.37005327  0.28076225     0.01300
C725        C  0.99596878  0.38356330  0.25728131     0.07400
C726        C  0.00460779  0.36133454  0.23917291    -0.05700
H727        H  0.97414611  0.37994535  0.30006654     0.08000
H728        H  0.01666415  0.36334304  0.21905143     0.09200
Cu729      Cu  0.97453187  0.31106170  0.30796144     0.44200
Cu730      Cu  0.00681715  0.29344751  0.24048898     0.42000
Cu731      Cu  0.00510510  0.24100540  0.30325790     0.43900
N732        N  0.98309094  0.28585353  0.34377879    -0.34400
N733        N  0.99549515  0.25994155  0.34280440    -0.28600
C734        C  0.00263491  0.25149020  0.36989948    -0.04700
C735        C  0.99445383  0.27355317  0.38842592     0.07500
C736        C  0.98217225  0.29481850  0.37108075     0.01300
H737        H  0.01430276  0.23166996  0.37535600     0.08900
H738        H  0.97466871  0.31605129  0.37756075     0.08000
N739        N  0.01343489  0.23030246  0.26028643    -0.35800
N740        N  0.01397956  0.24880349  0.23800304    -0.28000
C741        C  0.02094834  0.23426411  0.21390523    -0.03300
C742        C  0.02511462  0.20519874  0.22118453     0.05400
C743        C  0.02010338  0.20365912  0.25085364     0.03500
H744        H  0.02375406  0.24443133  0.19279262     0.08600
H745        H  0.02170357  0.18469368  0.26487754     0.07400
N746        N  0.27451915  0.01180726  0.33678563    -0.27000
N747        N  0.29959336  0.99798607  0.33788228    -0.34900
C748        C  0.30758562  0.99494842  0.36552014     0.01300
C749        C  0.28656268  0.00735197  0.38294596     0.07400
C750        C  0.26569724  0.01780012  0.36401424    -0.05700
H751        H  0.32797921  0.98572333  0.37233260     0.08000
H752        H  0.24634275  0.03002565  0.36942207     0.09200
Cu753      Cu  0.32446514  0.98938338  0.30168144     0.44200
Cu754      Cu  0.25674911  0.02385756  0.29705912     0.42000
Cu755      Cu  0.30752864  0.02417241  0.23375728     0.43900
N756        N  0.35431275  0.99672790  0.26918002    -0.34400
N757        N  0.34921410  0.01118159  0.24477947    -0.28600
C758        C  0.37458895  0.01718311  0.23168452    -0.04700
C759        C  0.39650663  0.00619723  0.24902075     0.07500
C760        C  0.38263057  0.99306908  0.27233541     0.01300
H761        H  0.37694756  0.03008553  0.21201493     0.08900
H762        H  0.39220551  0.98306286  0.29129275     0.08000
N763        N  0.26332758  0.03240309  0.23151075    -0.35800
N764        N  0.24543782  0.03216310  0.25408920    -0.28000
C765        C  0.21864349  0.03754335  0.24482482    -0.03300
C766        C  0.21939305  0.04130724  0.21495794     0.05400
C767        C  0.24822086  0.03800124  0.20737109     0.03500
H768        H  0.20001858  0.03880263  0.25904174     0.08600
H769        H  0.25762841  0.03926156  0.18585268     0.07400
N770        N  0.26005054  0.31805722  0.01556192    -0.27000
N771        N  0.28552122  0.31875714  0.00269837    -0.34900
C772        C  0.29260841  0.34623622  0.99720232     0.01300
C773        C  0.27058487  0.36410785  0.00687125     0.07400
C774        C  0.25003299  0.34555251  0.01838606    -0.05700
H775        H  0.31313284  0.35278330  0.98836060     0.08000
H776        H  0.23022344  0.35157356  0.02946603     0.09200
Cu777      Cu  0.31230892  0.28320446  0.99864325     0.44200
Cu778      Cu  0.24391660  0.27855316  0.03093215     0.42000
Cu779      Cu  0.29816043  0.21682620  0.03546872     0.43900
N780        N  0.34367988  0.25262870  0.00757824    -0.34400
N781        N  0.33953265  0.22824545  0.02223965    -0.28600
C782        C  0.36539626  0.21579708  0.02806369    -0.04700
C783        C  0.38657309  0.23367698  0.01683872     0.07500
C784        C  0.37180078  0.25657753  0.00376689     0.01300
H785        H  0.36858038  0.19617307  0.04089406     0.08900
H786        H  0.38065579  0.27558466  0.99333884     0.08000
N787        N  0.25425997  0.21390580  0.04499765    -0.35800
N788        N  0.23524923  0.23565007  0.04340362    -0.28000
C789        C  0.20927653  0.22576213  0.05115568    -0.03300
C790        C  0.21173993  0.19638272  0.05799493     0.05400
C791        C  0.24071541  0.18977939  0.05379407     0.03500
H792        H  0.19006023  0.23929363  0.05191363     0.08600
H793        H  0.25141265  0.16900043  0.05712240     0.07400
C794        C  0.40216710  0.40828596  0.58468549     0.86800
C795        C  0.38371797  0.42826056  0.60379174    -0.53500
C796        C  0.39861105  0.44632897  0.62054649     0.09700
C797        C  0.43159557  0.44214728  0.61706048     0.20700
C798        C  0.42207167  0.42843206  0.56750603    -0.54200
C799        C  0.43793453  0.44602070  0.58413204     0.09800
C800        C  0.42173988  0.39215123  0.60634727    -0.53700
C801        C  0.43725922  0.40952594  0.62311878     0.10400
H802        H  0.36051994  0.42710699  0.60495879     0.14900
H803        H  0.44425922  0.45625634  0.63074392     0.00600
H804        H  0.42383455  0.42829389  0.54407488     0.15200
H805        H  0.42266089  0.36888135  0.60950924     0.15000
C806        C  0.58566594  0.40865779  0.41015918     0.86800
C807        C  0.60457664  0.39142844  0.43158067    -0.53500
C808        C  0.62157315  0.40774676  0.44806768     0.09700
C809        C  0.61864672  0.44048750  0.44111220     0.20700
C810        C  0.56912486  0.43088276  0.42854378    -0.54200
C811        C  0.58620566  0.44743235  0.44492304     0.09800
C812        C  0.60734556  0.42633884  0.39238333    -0.53700
C813        C  0.62424258  0.44337205  0.40811718     0.10400
H814        H  0.60569982  0.36800311  0.43269142     0.14900
H815        H  0.63244635  0.45412014  0.45416317     0.00600
H816        H  0.54589273  0.43311762  0.42886196     0.15200
H817        H  0.60979267  0.42520931  0.36905981     0.15000
C818        C  0.64035716  0.63123122  0.58081453     0.86800
C819        C  0.65564795  0.60987510  0.60147695    -0.53500
C820        C  0.63793723  0.59382430  0.61877166     0.09700
C821        C  0.60557998  0.60067497  0.61379573     0.20700
C822        C  0.62008702  0.61285214  0.56397686    -0.54200
C823        C  0.60134784  0.59670252  0.58060604     0.09800
C824        C  0.62087413  0.64920812  0.60086363    -0.53700
C825        C  0.60235711  0.63376151  0.61796690     0.10400
H826        H  0.67867810  0.60869498  0.60414717     0.14900
H827        H  0.59106532  0.58799307  0.62813878     0.00600
H828        H  0.62136877  0.61260223  0.54059174     0.15200
H829        H  0.62240643  0.67250215  0.60217412     0.15000
C830        C  0.39317592  0.58625378  0.41290696     0.86800
C831        C  0.41304251  0.60451556  0.39367835    -0.53500
C832        C  0.43250440  0.62007805  0.40799848     0.09700
C833        C  0.42995036  0.61619347  0.44131188     0.20700
C834        C  0.41333109  0.56772500  0.43196495    -0.54200
C835        C  0.43289186  0.58289399  0.44719779     0.09800
C836        C  0.37930922  0.60811535  0.43366176    -0.53700
C837        C  0.39818102  0.62371243  0.44857002     0.10400
H838        H  0.41098006  0.60578447  0.37033976     0.14900
H839        H  0.44521093  0.62939169  0.45298849     0.00600
H840        H  0.41120094  0.54451392  0.43348815     0.15200
H841        H  0.35651126  0.61249616  0.43591709     0.15000
C842        C  0.51901558  0.52245347  0.52216469    -0.02200
C843        C  0.46886310  0.58344563  0.48835864    -0.13100
C844        C  0.45420587  0.56817033  0.46740914     0.09100
C845        C  0.45975933  0.53816064  0.46624422    -0.13100
C846        C  0.47919193  0.52414887  0.48475130    -0.13100
C847        C  0.49557025  0.53946960  0.50431514     0.09100
C848        C  0.48900448  0.56936207  0.50662514    -0.13100
H849        H  0.46466846  0.60628585  0.49108544     0.13100
H850        H  0.44968817  0.52501358  0.45062218     0.13100
H851        H  0.48263020  0.50109609  0.48255772     0.13100
H852        H  0.49907663  0.58209634  0.52263412     0.13100
C853        C  0.57190269  0.58262040  0.53775437    -0.13100
C854        C  0.57928904  0.57805438  0.56697759     0.09100
C855        C  0.56598448  0.55517277  0.58221851    -0.13100
C856        C  0.54612369  0.53761143  0.56866047    -0.13100
C857        C  0.53865306  0.54246801  0.53934731     0.09100
C858        C  0.55287942  0.56477579  0.52417034    -0.13100
H859        H  0.58063371  0.60011673  0.52482695     0.13100
H860        H  0.57140480  0.55021273  0.60443639     0.13100
H861        H  0.53759223  0.51961801  0.58105514     0.13100
H862        H  0.54898131  0.56867478  0.50139321     0.13100
C863        C  0.57575539  0.46623237  0.49462877    -0.13100
C864        C  0.57379193  0.46956754  0.46452440     0.09100
C865        C  0.55750785  0.49278799  0.45311503    -0.13100
C866        C  0.54171137  0.51114180  0.47135199    -0.13100
C867        C  0.54035130  0.50578742  0.50161272     0.09100
C868        C  0.55955365  0.48440531  0.51298267    -0.13100
H869        H  0.58860317  0.44864873  0.50390081     0.13100
H870        H  0.55650523  0.49633010  0.42992338     0.13100
H871        H  0.53001794  0.52904466  0.46132946     0.13100
H872        H  0.56047051  0.48049267  0.53611667     0.13100
C873        C  0.46451729  0.49318430  0.57987986    -0.13100
C874        C  0.46064835  0.46477494  0.57100323     0.09100
C875        C  0.47767659  0.45449267  0.54795350    -0.13100
C876        C  0.49741165  0.47216122  0.53355615    -0.13100
C877        C  0.50132115  0.50107245  0.54168474     0.09100
C878        C  0.48401152  0.51126377  0.56498678    -0.13100
H879        H  0.45144096  0.50188070  0.59736191     0.13100
H880        H  0.47531462  0.43270373  0.54050569     0.13100
H881        H  0.50823678  0.46323553  0.51483115     0.13100
H882        H  0.48505067  0.53359501  0.57119961     0.13100
C883        C  0.33980302  0.38197370  0.54020739    -0.13100
C884        C  0.34573684  0.35209983  0.53893875     0.09100
C885        C  0.37229234  0.34138086  0.54886746    -0.13100
C886        C  0.39137285  0.35958652  0.56192409    -0.13100
C887        C  0.38427393  0.38904888  0.56586066     0.09100
C888        C  0.35904169  0.40025571  0.55304165    -0.13100
H889        H  0.32003289  0.39124145  0.53182355     0.13100
H890        H  0.37808326  0.31867248  0.54754591     0.13100
H891        H  0.41148381  0.35016335  0.56910962     0.13100
H892        H  0.35347378  0.42305994  0.55413931     0.13100
C893        C  0.10396298  0.26672619  0.51352623    -0.16100
C894        C  0.11940217  0.29078250  0.51058177    -0.31300
H895        H  0.11453632  0.24563585  0.51184393     0.12900
H896        H  0.10941386  0.31192122  0.51393374     0.13500
C897        C  0.00921207  0.25505063  0.43676664    -0.16100
C898        C  0.99975215  0.27670594  0.41943869    -0.31300
H899        H  0.01315354  0.23362436  0.42827205     0.12900
H900        H  0.99473367  0.29772694  0.42848767     0.13500
C901        C  0.02161587  0.27739659  0.61175185    -0.16100
C902        C  0.02039025  0.25546463  0.63133153    -0.31300
H903        H  0.02399386  0.29937380  0.61878230     0.12900
H904        H  0.01683977  0.23362135  0.62440058     0.13500
C905        C  0.28732868  0.11466259  0.50869079    -0.16100
C906        C  0.26646654  0.13140862  0.49707109    -0.31300
H907        H  0.30791757  0.12367008  0.51341115     0.12900
H908        H  0.24656919  0.12160505  0.49113725     0.13500
C909        C  0.26752130  0.02114391  0.43156911    -0.16100
C910        C  0.28883082  0.01065206  0.41457132    -0.31300
H911        H  0.24696168  0.02723013  0.42231523     0.12900
H912        H  0.30895474  0.00366247  0.42426198     0.13500
C913        C  0.28429563  0.03019737  0.60875518    -0.16100
C914        C  0.26249232  0.02761576  0.62818466    -0.31300
H915        H  0.30609132  0.03147821  0.61626418     0.12900
H916        H  0.24081275  0.02494856  0.62074773     0.13500
C917        C  0.54850839  0.37912790  0.34425298    -0.13100
C918        C  0.54294969  0.35060335  0.35336991     0.09100
C919        C  0.54647674  0.34305303  0.38272182    -0.13100
C920        C  0.55793394  0.36257889  0.40171085    -0.13100
C921        C  0.56682081  0.38998175  0.39173739     0.09100
C922        C  0.55983284  0.39866139  0.36328015    -0.13100
H923        H  0.54493304  0.38632795  0.32218801     0.13100
H924        H  0.54134230  0.32174137  0.39100248     0.13100
H925        H  0.56070586  0.35566868  0.42399792     0.13100
H926        H  0.56419029  0.42025189  0.35519578     0.13100
C927        C  0.51994309  0.10515979  0.26785525    -0.16100
C928        C  0.51662265  0.12233130  0.29078307    -0.31300
H929        H  0.51909225  0.11448767  0.24613888     0.12900
H930        H  0.51855571  0.11335788  0.31258619     0.13500
C931        C  0.44498487  0.00740399  0.26865924    -0.16100
C932        C  0.42782643  0.01067510  0.24567234    -0.31300
H933        H  0.43565833  0.00223055  0.28973833     0.12900
H934        H  0.43656555  0.01755930  0.22477987     0.13500
C935        C  0.61956751  0.02761895  0.27734750    -0.16100
C936        C  0.63829352  0.03047051  0.25501585    -0.31300
H937        H  0.62713524  0.02884704  0.29930350     0.12900
H938        H  0.63104601  0.02846203  0.23300608     0.13500
C939        C  0.51847745  0.28000209  0.12668380    -0.16100
C940        C  0.51846003  0.25675939  0.10979564    -0.31300
H941        H  0.52104827  0.30148239  0.11718497     0.12900
H942        H  0.51729876  0.23525881  0.11954777     0.13500
C943        C  0.43416936  0.25472385  0.01821222    -0.16100
C944        C  0.41808524  0.23102632  0.02049992    -0.31300
H945        H  0.42374219  0.27572882  0.01485837     0.12900
H946        H  0.42787895  0.21002513  0.02555842     0.13500
C947        C  0.60954477  0.26779998  0.02230543    -0.16100
C948        C  0.62965445  0.24642066  0.02131881    -0.31300
H949        H  0.61602990  0.29005344  0.02341567     0.12900
H950        H  0.62341861  0.22414407  0.01925688     0.13500
C951        C  0.36574914  0.54008607  0.35187495    -0.13100
C952        C  0.33582847  0.54283247  0.35521502     0.09100
C953        C  0.32458389  0.55722662  0.37944755    -0.13100
C954        C  0.34264509  0.56990236  0.39899277    -0.13100
C955        C  0.37270390  0.56885383  0.39481611     0.09100
C956        C  0.38390256  0.55251506  0.37165400    -0.13100
H957        H  0.37518211  0.52854157  0.33383405     0.13100
H958        H  0.30166328  0.55948300  0.38303656     0.13100
H959        H  0.33246095  0.58049405  0.41707905     0.13100
H960        H  0.40686878  0.55046664  0.36810543     0.13100
C961        C  0.09703125  0.50859606  0.26628007    -0.16100
C962        C  0.11514627  0.50776509  0.28857143    -0.31300
H963        H  0.10519461  0.50587844  0.24436665     0.12900
H964        H  0.10711583  0.51161053  0.31036931     0.13500
C965        C  0.00148829  0.41480748  0.25389422    -0.16100
C966        C  0.00115522  0.43169126  0.27717678    -0.31300
H967        H  0.00614701  0.42382304  0.23248562     0.12900
H968        H  0.99826003  0.42207551  0.29862239     0.13500
C969        C  0.01799770  0.60778442  0.27770596    -0.16100
C970        C  0.01493736  0.62590940  0.25473799    -0.31300
H971        H  0.02281887  0.61620384  0.29867648     0.12900
H972        H  0.00908185  0.61769518  0.23393662     0.13500
C973        C  0.27614219  0.49232458  0.12843901    -0.16100
C974        C  0.25353778  0.49156561  0.11075150    -0.31300
H975        H  0.29750486  0.49575336  0.11948653     0.12900
H976        H  0.23205663  0.48958736  0.11984079     0.13500
C977        C  0.24996754  0.41362395  0.01440931    -0.16100
C978        C  0.27228211  0.39594211  0.00790352    -0.31300
H979        H  0.22885282  0.40480808  0.01820551     0.12900
H980        H  0.29302120  0.40516515  0.00289850     0.13500
C981        C  0.26566813  0.58959490  0.03088520    -0.16100
C982        C  0.24366243  0.60901016  0.02890467    -0.31300
H983        H  0.28722496  0.59686392  0.03423455     0.12900
H984        H  0.22223639  0.60185089  0.02451090     0.13500
C985        C  0.48907348  0.35632973  0.65790083    -0.13100
C986        C  0.48292197  0.36004089  0.68744293     0.09100
C987        C  0.46521924  0.38367944  0.69564978    -0.13100
C988        C  0.45210385  0.40167137  0.67464779    -0.13100
C989        C  0.45662965  0.39645507  0.64517029     0.09100
C990        C  0.47603991  0.37428710  0.63704092    -0.13100
H991        H  0.50307605  0.33881467  0.65074626     0.13100
H992        H  0.45999744  0.38722531  0.71818948     0.13100
H993        H  0.43678608  0.41811026  0.68149518     0.13100
H994        H  0.47985342  0.36984112  0.61438917     0.13100
C995        C  0.51747251  0.28109497  0.91466748    -0.16100
C996        C  0.52401869  0.25842949  0.93229669    -0.31300
H997        H  0.51152622  0.30192136  0.92364314     0.12900
H998        H  0.52923777  0.23748907  0.92331836     0.13500
C999        C  0.53328987  0.10969264  0.76828537    -0.16100
C1000       C  0.53098651  0.12906202  0.74617402    -0.31300
H1001       H  0.53570041  0.11720425  0.79006608     0.12900
H1002       H  0.52796738  0.12179842  0.72433147     0.13500
C1003       C  0.61619987  0.01216244  0.76312838    -0.16100
C1004       C  0.63340614  0.01097285  0.78615004    -0.31300
H1005       H  0.62538763  0.01044041  0.74151018     0.12900
H1006       H  0.62443370  0.01357887  0.80779513     0.13500
C1007       C  0.44039470  0.02824262  0.76526742    -0.16100
C1008       C  0.42260590  0.02404505  0.78815099    -0.31300
H1009       H  0.43172149  0.03270512  0.74401162     0.12900
H1010       H  0.43121769  0.01868683  0.80931599     0.13500
C1011       C  0.77545189  0.03866433  0.43300679    -0.16100
C1012       C  0.79814503  0.03751418  0.41461298    -0.31300
H1013       H  0.75408733  0.04231514  0.42465784     0.12900
H1014       H  0.81951378  0.03290249  0.42270764     0.13500
C1015       C  0.77382389  0.01485205  0.60978538    -0.16100
C1016       C  0.79631824  0.01480985  0.62759304    -0.31300
H1017       H  0.75237447  0.01208333  0.61868331     0.12900
H1018       H  0.81773046  0.01871809  0.61900784     0.13500
C1019       C  0.69048149  0.38556519  0.48546918    -0.13100
C1020       C  0.68302032  0.35871203  0.49805837     0.09100
C1021       C  0.65409137  0.35105546  0.49826710    -0.13100
C1022       C  0.63373298  0.36833711  0.48391901    -0.13100
C1023       C  0.64171413  0.39372241  0.46893478     0.09100
C1024       C  0.66992655  0.40299291  0.47116366    -0.13100
H1025       H  0.71240311  0.39256931  0.48535992     0.13100
H1026       H  0.64715531  0.33114612  0.50852506     0.13100
H1027       H  0.61186066  0.36111937  0.48345240     0.13100
H1028       H  0.67656596  0.42271321  0.46038570     0.13100
C1029       C  0.75421949  0.13193223  0.53516648    -0.16100
C1030       C  0.77740481  0.11424268  0.53252899    -0.31300
H1031       H  0.73284725  0.12362053  0.53295741     0.12900
H1032       H  0.79870147  0.12290247  0.53377763     0.13500
C1033       C  0.91098876  0.28789217  0.52764527    -0.16100
C1034       C  0.92886287  0.26485120  0.53123621    -0.31300
H1035       H  0.91935242  0.30896130  0.52182274     0.12900
H1036       H  0.92038440  0.24367489  0.53608363     0.13500
C1037       C  0.33820478  0.48931093  0.65655458    -0.13100
C1038       C  0.34792646  0.49140387  0.68496438     0.09100
C1039       C  0.37638326  0.48239624  0.69075858    -0.13100
C1040       C  0.39386299  0.46977808  0.66921790    -0.13100
C1041       C  0.38314058  0.46545269  0.64157902     0.09100
C1042       C  0.35557087  0.47662674  0.63520249    -0.13100
H1043       H  0.31683418  0.49661799  0.65079127     0.13100
H1044       H  0.38499885  0.48420185  0.71214233     0.13100
H1045       H  0.41520052  0.46222047  0.67468357     0.13100
H1046       H  0.34693681  0.47469374  0.61380145     0.13100
C1047       C  0.28629522  0.51755284  0.91745422    -0.16100
C1048       C  0.26218590  0.51676611  0.93397959    -0.31300
H1049       H  0.30687406  0.51122677  0.92653612     0.12900
H1050       H  0.24161693  0.52186358  0.92429858     0.13500
C1051       C  0.11229972  0.53059024  0.75047751    -0.16100
C1052       C  0.12792552  0.53824279  0.77298801    -0.31300
H1053       H  0.12251109  0.52733946  0.72948619     0.12900
H1054       H  0.11725655  0.54236589  0.79361655     0.13500
C1055       C  0.03277284  0.43341533  0.76104551    -0.16100
C1056       C  0.03046469  0.41643408  0.78504516    -0.31300
H1057       H  0.03555895  0.42375442  0.74004071     0.12900
H1058       H  0.02647074  0.42601827  0.80598089     0.13500
C1059       C  0.01435262  0.61062309  0.75398651    -0.16100
C1060       C  0.01683729  0.62803317  0.77662939    -0.31300
H1061       H  0.00942241  0.61978620  0.73280868     0.12900
H1062       H  0.02291220  0.61902933  0.79759057     0.13500
C1063       C  0.03707812  0.76481602  0.42529684    -0.16100
C1064       C  0.03526555  0.78776837  0.40698437    -0.31300
H1065       H  0.03982466  0.74323268  0.41693173     0.12900
H1066       H  0.03132687  0.80930601  0.41523595     0.13500
C1067       C  0.01802679  0.78716178  0.61898078    -0.16100
C1068       C  0.01410160  0.76484330  0.60156473    -0.31300
H1069       H  0.02560729  0.80755423  0.61008150     0.12900
H1070       H  0.00761669  0.74417115  0.61066198     0.13500
C1071       C  0.37605010  0.69766702  0.47481530    -0.13100
C1072       C  0.35259392  0.69076028  0.49305365     0.09100
C1073       C  0.34812686  0.66163074  0.50047745    -0.13100
C1074       C  0.36525555  0.63981852  0.48820050    -0.13100
C1075       C  0.38711510  0.64658392  0.46806057     0.09100
C1076       C  0.39305381  0.67570883  0.46227633    -0.13100
H1077       H  0.38006658  0.71990597  0.46863008     0.13100
H1078       H  0.33064562  0.65557234  0.51490292     0.13100
H1079       H  0.36017914  0.61747648  0.49290839     0.13100
H1080       H  0.40912654  0.68155553  0.44628352     0.13100
C1081       C  0.12956703  0.77674326  0.53073805    -0.16100
C1082       C  0.11335241  0.75446050  0.52408132    -0.31300
H1083       H  0.11956337  0.79802384  0.53325162     0.12900
H1084       H  0.12280325  0.73283775  0.52273892     0.13500
C1085       C  0.28722953  0.92008579  0.52574050    -0.16100
C1086       C  0.26552555  0.93945776  0.52936709    -0.31300
H1087       H  0.30824762  0.92724224  0.51861888     0.12900
H1088       H  0.24421470  0.93224630  0.53527328     0.13500
C1089       C  0.69192947  0.54417619  0.65520324    -0.13100
C1090       C  0.68887141  0.55219031  0.68420331     0.09100
C1091       C  0.66540385  0.57020004  0.69213311    -0.13100
C1092       C  0.64675678  0.58172939  0.67109897    -0.13100
C1093       C  0.65084328  0.57501173  0.64186607     0.09100
C1094       C  0.67305996  0.55533553  0.63434173    -0.13100
H1095       H  0.70954445  0.53007028  0.64842747     0.13100
H1096       H  0.66259092  0.57698736  0.71425633     0.13100
H1097       H  0.63079934  0.59771165  0.67741816     0.13100
H1098       H  0.67701034  0.55016995  0.61187840     0.13100
C1099       C  0.91862835  0.51787956  0.74423709    -0.16100
C1100       C  0.93707378  0.51516761  0.76626622    -0.31300
H1101       H  0.92656904  0.52236380  0.72241304     0.12900
H1102       H  0.92904569  0.51170215  0.78818932     0.13500
C1103       C  0.74353620  0.51818428  0.92657033    -0.16100
C1104       C  0.76642673  0.51071691  0.91016119    -0.31300
H1105       H  0.72278067  0.52219062  0.91682668     0.12900
H1106       H  0.78673706  0.50577081  0.92053013     0.13500
C1107       C  0.74776425  0.61370335  0.00711024    -0.16100
C1108       C  0.77058181  0.63083939  0.00868303    -0.31300
H1109       H  0.72652708  0.62331032  0.00416173     0.12900
H1110       H  0.79164634  0.62139546  0.01309037     0.13500
C1111       C  0.75340642  0.43559877  0.02261294    -0.16100
C1112       C  0.77691595  0.41816638  0.02007285    -0.31300
H1113       H  0.73258099  0.42623981  0.02642179     0.12900
H1114       H  0.79775734  0.42742097  0.01576057     0.13500
C1115       C  0.59992349  0.77264495  0.01101392    -0.16100
C1116       C  0.61669916  0.79567586  0.00694457    -0.31300
H1117       H  0.60942194  0.75100491  0.01062106     0.12900
H1118       H  0.60764866  0.81744916  0.00845652     0.13500
C1119       C  0.42367003  0.77941944  0.02099511    -0.16100
C1120       C  0.40850337  0.75563335  0.02636915    -0.31300
H1121       H  0.41278409  0.80026844  0.01802774     0.12900
H1122       H  0.41963651  0.73503354  0.03028215     0.13500
C1123       C  0.65608353  0.49066560  0.34937259    -0.13100
C1124       C  0.68560933  0.48730980  0.35426904     0.09100
C1125       C  0.69453839  0.47342948  0.38013142    -0.13100
C1126       C  0.67438871  0.46105712  0.39936474    -0.13100
C1127       C  0.64510548  0.46243614  0.39300797     0.09100
C1128       C  0.63614492  0.47840607  0.36847346    -0.13100
H1129       H  0.64823593  0.50190533  0.33022959     0.13100
H1130       H  0.71710051  0.47065328  0.38473754     0.13100
H1131       H  0.68188692  0.44875302  0.41797042     0.13100
H1132       H  0.61361499  0.48007936  0.36324658     0.13100
C1133       C  0.75987942  0.53145049  0.10272677    -0.16100
C1134       C  0.73808999  0.53003861  0.12219334    -0.31300
H1135       H  0.78156291  0.53441325  0.10993975     0.12900
H1136       H  0.71654823  0.52580663  0.11521376     0.13500
C1137       C  0.90529983  0.53501771  0.26416766    -0.16100
C1138       C  0.92216143  0.52824226  0.28656174    -0.31300
H1139       H  0.91497521  0.53992259  0.24312151     0.12900
H1140       H  0.91282280  0.52435974  0.30793560     0.13500
C1141       C  0.46986683  0.68868741  0.38327636    -0.13100
C1142       C  0.47729048  0.68220166  0.35443952     0.09100
C1143       C  0.47426536  0.65368742  0.34546924    -0.13100
C1144       C  0.46178419  0.63301118  0.36380500    -0.13100
C1145       C  0.45188302  0.64014959  0.39169809     0.09100
C1146       C  0.45754988  0.66774119  0.40180659    -0.13100
H1147       H  0.47243267  0.71021188  0.39125608     0.13100
H1148       H  0.48067335  0.64735750  0.32391004     0.13100
H1149       H  0.45887240  0.61157866  0.35565603     0.13100
H1150       H  0.45119010  0.67368240  0.42344201     0.13100
C1151       C  0.51136918  0.77986852  0.10672158    -0.16100
C1152       C  0.50768725  0.75732477  0.12529318    -0.31300
H1153       H  0.51347310  0.80141510  0.11494433     0.12900
H1154       H  0.50486392  0.73580977  0.11714085     0.13500
C1155       C  0.53353544  0.90988225  0.29172713    -0.16100
C1156       C  0.54033168  0.92828458  0.26981178    -0.31300
H1157       H  0.52851708  0.91801226  0.31311032     0.12900
H1158       H  0.54539996  0.91995629  0.24856533     0.13500
C1159       C  0.55922526  0.69426202  0.65275972    -0.13100
C1160       C  0.55827402  0.68529141  0.68199229     0.09100
C1161       C  0.56743199  0.65677952  0.68909855    -0.13100
C1162       C  0.57939527  0.63867017  0.66778552    -0.13100
C1163       C  0.58306598  0.64897086  0.63918570     0.09100
C1164       C  0.57145036  0.67642086  0.63174313    -0.13100
H1165       H  0.55143872  0.71551699  0.64601076     0.13100
H1166       H  0.56647275  0.64878771  0.71124889     0.13100
H1167       H  0.58701651  0.61727712  0.67404338     0.13100
H1168       H  0.57291711  0.68467349  0.60967390     0.13100
C1169       C  0.52562550  0.91426770  0.74611679    -0.16100
C1170       C  0.52337109  0.93237489  0.76844256    -0.31300
H1171       H  0.52914050  0.92270321  0.72427233     0.12900
H1172       H  0.52081690  0.92362455  0.79024557     0.13500
C1173       C  0.51434046  0.75281192  0.91176217    -0.16100
C1174       C  0.51149748  0.77595593  0.92882594    -0.31300
H1175       H  0.51682008  0.73124724  0.92129626     0.12900
H1176       H  0.50985660  0.79745522  0.91912481     0.13500
C1177       C  0.70735114  0.66251595  0.54322295    -0.13100
C1178       C  0.69704147  0.68993800  0.53396369     0.09100
C1179       C  0.66740474  0.69593916  0.53593110    -0.13100
C1180       C  0.64899573  0.67599502  0.54910356    -0.13100
C1181       C  0.65983585  0.64995185  0.56154598     0.09100
C1182       C  0.68901557  0.64274581  0.55664902    -0.13100
H1183       H  0.72980151  0.65644454  0.54108988     0.13100
H1184       H  0.65840357  0.71634634  0.52807533     0.13100
H1185       H  0.62637614  0.68165081  0.55089522     0.13100
H1186       H  0.69811051  0.62204182  0.56338786     0.13100
C1187       C  0.92066783  0.75774651  0.50563113    -0.16100
C1188       C  0.93955457  0.77918585  0.50421846    -0.31300
H1189       H  0.92810290  0.73553378  0.50915859     0.12900
H1190       H  0.93210271  0.80145709  0.50149548     0.13500
C1191       C  0.75694715  0.92101496  0.50990586    -0.16100
C1192       C  0.77940183  0.93853594  0.51154729    -0.31300
H1193       H  0.73516828  0.92967682  0.51200456     0.12900
H1194       H  0.80106306  0.92955472  0.51027443     0.13500
C1195       C  0.06054159  0.90084421  0.85916624    -0.13100
C1196       C  0.06689535  0.89076386  0.88738594     0.09100
C1197       C  0.05604866  0.86382173  0.89640907    -0.13100
C1198       C  0.04386204  0.84564165  0.87656828    -0.13100
C1199       C  0.04150655  0.85417962  0.84732369     0.09100
C1200       C  0.04838653  0.88267500  0.83930186    -0.13100
H1201       H  0.06619610  0.92233696  0.85182252     0.13100
H1202       H  0.05839555  0.85599721  0.91846871     0.13100
H1203       H  0.03748214  0.82441457  0.88407175     0.13100
H1204       H  0.04566026  0.89069159  0.81735995     0.13100
C1205       C  0.13742393  0.85736466  0.97458996    -0.13100
C1206       C  0.14673511  0.88204795  0.95924941     0.09100
C1207       C  0.17620845  0.88725169  0.95743361    -0.13100
C1208       C  0.19607619  0.86708715  0.96918260    -0.13100
C1209       C  0.18675191  0.84141594  0.98297875     0.09100
C1210       C  0.15713445  0.83733605  0.98629299    -0.13100
H1211       H  0.11476753  0.85300578  0.97658807     0.13100
H1212       H  0.18393604  0.90596602  0.94546435     0.13100
H1213       H  0.21870863  0.87103023  0.96627894     0.13100
H1214       H  0.14904322  0.81829271  0.99735081     0.13100
C1215       C  0.16865849  0.93630530  0.86718168    -0.13100
C1216       C  0.15526985  0.95063059  0.89048601     0.09100
C1217       C  0.16479350  0.97802784  0.89770042    -0.13100
C1218       C  0.18625208  0.99144708  0.88071040    -0.13100
C1219       C  0.19811637  0.97759613  0.85634218     0.09100
C1220       C  0.18953534  0.94975641  0.85014643    -0.13100
H1221       H  0.16231667  0.91485498  0.86154866     0.13100
H1222       H  0.15480718  0.98948119  0.91553829     0.13100
H1223       H  0.19272289  0.01298794  0.88583522     0.13100
H1224       H  0.19872869  0.93855444  0.83173924     0.13100
C1225       C  0.06710047  0.94892612  0.99071779    -0.13100
C1226       C  0.08330524  0.96078914  0.96784891     0.09100
C1227       C  0.08672100  0.99084361  0.96655732    -0.13100
C1228       C  0.07153750  0.00885433  0.98607904    -0.13100
C1229       C  0.05173465  0.99725633  0.00653705     0.09100
C1230       C  0.05238995  0.96674030  0.01030207    -0.13100
H1231       H  0.06504553  0.92571103  0.99286917     0.13100
H1232       H  0.09969459  0.00049276  0.94943388     0.13100
H1233       H  0.07331463  0.03205003  0.98355783     0.13100
H1234       H  0.04064044  0.95612373  0.02767301     0.13100
C1235       C  0.84951171  0.90239238  0.06296789    -0.13100
C1236       C  0.87912372  0.89565572  0.06442513     0.09100
C1237       C  0.88952814  0.87096835  0.04987127    -0.13100
C1238       C  0.87068327  0.85203280  0.03725601    -0.13100
C1239       C  0.84095474  0.85774713  0.03803966     0.09100
C1240       C  0.83079076  0.88367469  0.05013690    -0.13100
H1241       H  0.84019517  0.92188620  0.07177552     0.13100
H1242       H  0.91224927  0.86553396  0.04954334     0.13100
H1243       H  0.87938484  0.83266243  0.02738360     0.13100
H1244       H  0.80812856  0.88921838  0.05069063     0.13100
C1245       C  0.87114434  0.98942391  0.13369336    -0.13100
C1246       C  0.89394945  0.97037181  0.14099372     0.09100
C1247       C  0.90250138  0.96836059  0.16987595    -0.13100
C1248       C  0.88684536  0.98302194  0.19144278    -0.13100
C1249       C  0.86235853  0.99995976  0.18436021     0.09100
C1250       C  0.85552496  0.00398569  0.15509034    -0.13100
H1251       H  0.86437276  0.99178757  0.11148088     0.13100
H1252       H  0.91985989  0.95384180  0.17617334     0.13100
H1253       H  0.89285758  0.97960339  0.21375149     0.13100
H1254       H  0.83735435  0.01751775  0.14869760     0.13100
C1255       C  0.96654581  0.86242066  0.13099065    -0.13100
C1256       C  0.95639902  0.89011969  0.13854670     0.09100
C1257       C  0.96262726  0.90020707  0.16601802    -0.13100
C1258       C  0.97618501  0.88192895  0.18645566    -0.13100
C1259       C  0.98418380  0.85334421  0.17954610     0.09100
C1260       C  0.98027748  0.84432157  0.15116150    -0.13100
H1261       H  0.96312022  0.85435519  0.10959200     0.13100
H1262       H  0.95586546  0.92165679  0.17228316     0.13100
H1263       H  0.97928975  0.88987152  0.20792436     0.13100
H1264       H  0.98703248  0.82292426  0.14454997     0.13100
C1265       C  0.96998197  0.96254478  0.03701007    -0.13100
C1266       C  0.96416667  0.96323749  0.06695968     0.09100
C1267       C  0.98010508  0.98239944  0.08322246    -0.13100
C1268       C  0.00126146  0.99977683  0.07008493    -0.13100
C1269       C  0.00726406  0.99867925  0.04007747     0.09100
C1270       C  0.99027943  0.98038863  0.02389104    -0.13100
H1271       H  0.95912465  0.94818558  0.02312574     0.13100
H1272       H  0.97610465  0.98466272  0.10611404     0.13100
H1273       H  0.01217472  0.01449025  0.08359011     0.13100
H1274       H  0.99346800  0.97923375  0.00069144     0.13100
C1275       C  0.90236213  0.05216763  0.87402571    -0.13100
C1276       C  0.89058228  0.06778688  0.89738846     0.09100
C1277       C  0.86068982  0.06672121  0.90238130    -0.13100
C1278       C  0.84309081  0.05308621  0.88314834    -0.13100
C1279       C  0.85471670  0.03976837  0.85849568     0.09100
C1280       C  0.88465073  0.03868226  0.85459594    -0.13100
H1281       H  0.92531313  0.05155978  0.87002639     0.13100
H1282       H  0.85028953  0.07637709  0.92088466     0.13100
H1283       H  0.82017857  0.05397427  0.88720224     0.13100
H1284       H  0.89437934  0.02791119  0.83621874     0.13100
C1285       C  0.87839528  0.14101169  0.98907429    -0.13100
C1286       C  0.90031343  0.14771188  0.96894789     0.09100
C1287       C  0.90417022  0.17683956  0.96095203    -0.13100
C1288       C  0.88533339  0.19855767  0.97141394    -0.13100
C1289       C  0.86193082  0.19137262  0.98961412     0.09100
C1290       C  0.85936117  0.16250761  0.99912093    -0.13100
H1291       H  0.87470023  0.11870728  0.99534077     0.13100
H1292       H  0.92007149  0.18261272  0.94468400     0.13100
H1293       H  0.88781969  0.22058532  0.96360422     0.13100
H1294       H  0.84186276  0.15629527  0.01348320     0.13100
C1295       C  0.97208094  0.17020736  0.90577728    -0.13100
C1296       C  0.96694981  0.14271536  0.89511895     0.09100
C1297       C  0.97754256  0.13607015  0.86734618    -0.13100
C1298       C  0.99015736  0.15716007  0.84962341    -0.13100
C1299       C  0.99251041  0.18563955  0.85904551     0.09100
C1300       C  0.98443237  0.19160060  0.88782664    -0.13100
H1301       H  0.96527198  0.17572832  0.92745200     0.13100
H1302       H  0.97514546  0.11470598  0.85883800     0.13100
H1303       H  0.99711081  0.15113674  0.82812395     0.13100
H1304       H  0.98655173  0.21303231  0.89617442     0.13100
C1305       C  0.97155105  0.07328113  0.99758183    -0.13100
C1306       C  0.97203858  0.07041823  0.96753587     0.09100
C1307       C  0.99178355  0.05067619  0.95522472    -0.13100
C1308       C  0.01081072  0.03419669  0.97245774    -0.13100
C1309       C  0.01099293  0.03701067  0.00286728     0.09100
C1310       C  0.99026711  0.05647294  0.01495992    -0.13100
H1311       H  0.95584171  0.08759848  0.00772640     0.13100
H1312       H  0.99189450  0.04736589  0.93212423     0.13100
H1313       H  0.02411878  0.01830092  0.96159766     0.13100
H1314       H  0.98849502  0.05850293  0.03819570     0.13100
C1315       C  0.13929745  0.17048421  0.08541467    -0.13100
C1316       C  0.14537853  0.14167663  0.09432057     0.09100
C1317       C  0.17280070  0.13001266  0.08789568    -0.13100
C1318       C  0.19425995  0.14744193  0.07555961    -0.13100
C1319       C  0.18862626  0.17688432  0.06880713     0.09100
C1320       C  0.16054425  0.18780490  0.07310121    -0.13100
H1321       H  0.11808316  0.18006572  0.08844557     0.13100
H1322       H  0.17812084  0.10776739  0.09313109     0.13100
H1323       H  0.21537738  0.13788713  0.07191470     0.13100
H1324       H  0.15484589  0.20999899  0.06755675     0.13100
C1325       C  0.17552815  0.06776726  0.15036312    -0.13100
C1326       C  0.14754338  0.06802446  0.16206615     0.09100
C1327       C  0.14325392  0.05556027  0.18984667    -0.13100
C1328       C  0.16645293  0.04609925  0.20653657    -0.13100
C1329       C  0.19469428  0.04827234  0.19579880     0.09100
C1330       C  0.19887986  0.05812398  0.16704051    -0.13100
H1331       H  0.17971216  0.07644502  0.12898472     0.13100
H1332       H  0.12191020  0.05419550  0.19929395     0.13100
H1333       H  0.16212169  0.03770363  0.22814812     0.13100
H1334       H  0.22025483  0.05964494  0.15775942     0.13100
C1335       C  0.05049845  0.16489513  0.15431397    -0.13100
C1336       C  0.06353103  0.13975492  0.16652195     0.09100
C1337       C  0.05903771  0.13431350  0.19638605    -0.13100
C1338       C  0.04557865  0.15503550  0.21387087    -0.13100
C1339       C  0.03569594  0.18161407  0.20204800     0.09100
C1340       C  0.03721953  0.18576261  0.17185826    -0.13100
H1341       H  0.05227677  0.16933255  0.13126788     0.13100
H1342       H  0.06622635  0.11438986  0.20678045     0.13100
H1343       H  0.04395749  0.15046366  0.23686265     0.13100
H1344       H  0.02891640  0.20547730  0.16174341     0.13100
C1345       C  0.06513248  0.02242663  0.06581125    -0.13100
C1346       C  0.04814036  0.03588284  0.04399519     0.09100
C1347       C  0.04913114  0.06642445  0.04153329    -0.13100
C1348       C  0.06299603  0.08266245  0.06199680    -0.13100
C1349       C  0.07792105  0.06917140  0.08478676     0.09100
C1350       C  0.07967753  0.03882534  0.08599892    -0.13100
H1351       H  0.06614433  0.99908361  0.06795154     0.13100
H1352       H  0.03899081  0.07835626  0.02403964     0.13100
H1353       H  0.06176916  0.10603650  0.06021559     0.13100
H1354       H  0.09122392  0.02781304  0.10328973     0.13100
loop_ 
_geom_bond_atom_site_label_1 
_geom_bond_atom_site_label_2 
_geom_bond_distance 
_geom_bond_site_symmetry_2 
_ccdc_geom_bond_type 
C1            C2   1.531       .  S
C1            C7   1.534       .  S
C1            C5   1.533       .  S
C1         C1336   1.538       .  S
C2            H9   1.085       .  S
C2            C3   1.367       .  D
C3            C4   1.556       .  S
C3         C1316   1.503       .  S
C4            C8   1.555       .  S
C4            C6   1.557       .  S
C4           H10   1.109       .  S
C5           H11   1.086       .  S
C5            C6   1.371       .  D
C6         C1349   1.497       .  S
C7           H12   1.081       .  S
C7            C8   1.367       .  D
C8         C1326   1.500       .  S
C13          C14   1.533       .  S
C13          C19   1.537       .  S
C13          C17   1.531       .  S
C13        C1276   1.534       .  S
C14          H21   1.086       .  S
C14          C15   1.369       .  D
C15          C16   1.550       .  S
C15        C1296   1.494       .  S
C16          C20   1.549       .  S
C16          C18   1.557       .  S
C16          H22   1.110       .  S
C17          H23   1.086       .  S
C17          C18   1.369       .  D
C18        C1306   1.491       .  S
C19          H24   1.082       .  S
C19          C20   1.362       .  D
C20        C1286   1.490       .  S
C25          C26   1.535       .  S
C25          C31   1.530       .  S
C25          C29   1.534       .  S
C25        C1236   1.538       .  S
C26          H33   1.081       .  S
C26          C27   1.363       .  D
C27          C28   1.545       .  S
C27        C1246   1.487       .  S
C28          C32   1.546       .  S
C28          C30   1.558       .  S
C28          H34   1.106       .  S
C29          H35   1.082       .  S
C29          C30   1.381       .  D
C30        C1266   1.514       .  S
C31          H36   1.086       .  S
C31          C32   1.364       .  D
C32        C1256   1.489       .  S
C37          C38   1.537       .  S
C37          C43   1.535       .  S
C37          C41   1.532       .  S
C37        C1196   1.537       .  S
C38          H45   1.085       .  S
C38          C39   1.365       .  D
C39          C40   1.547       .  S
C39        C1206   1.487       .  S
C40          C44   1.545       .  S
C40          C42   1.552       .  S
C40          H46   1.110       .  S
C41          H47   1.086       .  S
C41          C42   1.372       .  D
C42        C1226   1.490       .  S
C43          H48   1.084       .  S
C43          C44   1.364       .  D
C44        C1216   1.488       .  S
C49        C1229   1.572   1_545  S
C49        C1269   1.563   1_545  S
C49        C1309   1.571       .  S
C49        C1346   1.570       .  S
N50          N51   1.320       .  A
N50          C54   1.352       .  A
N50         Cu58   2.089       .  S
N51          C52   1.336       .  A
N51         Cu57   2.049       .  S
C52          C53   1.383       .  A
C52          H55   1.080       .  S
C53        C1191   1.484       .  S
C53          C54   1.390       .  A
C54          H56   1.082       .  S
Cu57         N60   2.049       .  S
Cu58         N68   2.091       .  S
Cu59         N61   2.071       .  S
Cu59         N67   2.074       .  S
N60          N61   1.318       .  A
N60          C64   1.340       .  A
N61          C62   1.347       .  A
C62          C63   1.386       .  A
C62          H65   1.082       .  S
C63        C1187   1.477       .  S
C63          C64   1.384       .  A
C64          H66   1.081       .  S
N67          N68   1.324       .  A
N67          C71   1.342       .  A
N68          C69   1.346       .  A
C69          C70   1.390       .  A
C69          H72   1.081       .  S
C70          C71   1.386       .  A
C70        C1178   1.487       .  S
C71          H73   1.081       .  S
N74          N75   1.317       .  A
N74          C78   1.352       .  A
N74         Cu82   2.089       .  S
N75          C76   1.338       .  A
N75         Cu81   2.049       .  S
C76          C77   1.385       .  A
C76          H79   1.080       .  S
C77        C1169   1.488       .  S
C77          C78   1.392       .  A
C78          H80   1.082       .  S
Cu81         N84   2.049       .  S
Cu82         N92   2.093       .  S
Cu83         N85   2.101       .  S
Cu83         N91   2.104       .  S
N84          N85   1.320       .  A
N84          C88   1.337       .  A
N85          C86   1.353       .  A
C86          C87   1.393       .  A
C86          H89   1.082       .  S
C87        C1173   1.488       .  S
C87          C88   1.383       .  A
C88          H90   1.080       .  S
N91          N92   1.326       .  A
N91          C95   1.351       .  A
N92          C93   1.343       .  A
C93          C94   1.388       .  A
C93          H96   1.081       .  S
C94          C95   1.391       .  A
C94        C1160   1.494       .  S
C95          H97   1.081       .  S
N98          N99   1.319       .  A
N98         C102   1.352       .  A
N98        Cu106   2.093       .  S
N99         C100   1.337       .  A
N99        Cu105   2.046       .  S
C100        C101   1.383       .  A
C100        H103   1.081       .  S
C101       C1155   1.486       .  S
C101        C102   1.392       .  A
C102        H104   1.082       .  S
Cu105       N108   2.046       .  S
Cu106       N116   2.096       .  S
Cu107       N109   2.092       .  S
Cu107       N115   2.096       .  S
N108        N109   1.318       .  A
N108        C112   1.338       .  A
N109        C110   1.352       .  A
C110        C111   1.392       .  A
C110        H113   1.082       .  S
C111       C1152   1.486       .  S
C111        C112   1.384       .  A
C112        H114   1.081       .  S
N115        N116   1.326       .  A
N115        C119   1.344       .  A
N116        C117   1.349       .  A
C117        C118   1.389       .  A
C117        H120   1.081       .  S
C118        C119   1.389       .  A
C118       C1142   1.492       .  S
C119        H121   1.081       .  S
N122        N123   1.321       .  A
N122        C126   1.350       .  A
N122       Cu130   2.089       .  S
N123        C124   1.338       .  A
N123       Cu129   2.045       .  S
C124        C125   1.374       .  A
C124        H127   1.082       .  S
C125       C1137   1.473       .  S
C125        C126   1.391       .  A
C126        H128   1.082       .  S
Cu129       N132   2.045       .  S
Cu130       N140   2.091       .  S
Cu131       N133   2.085       .  S
Cu131       N139   2.089       .  S
N132        N133   1.318       .  A
N132        C136   1.339       .  A
N133        C134   1.350       .  A
C134        C135   1.390       .  A
C134        H137   1.082       .  S
C135       C1134   1.481       .  S
C135        C136   1.383       .  A
C136        H138   1.081       .  S
N139        N140   1.325       .  A
N139        C143   1.342       .  A
N140        C141   1.349       .  A
C141        C142   1.388       .  A
C141        H144   1.082       .  S
C142        C143   1.387       .  A
C142       C1124   1.488       .  S
C143        H145   1.081       .  S
O146       Cu154   2.011       .  S
O146        C156   1.276       .  A
O147       Cu154   2.015       .  S
O147        C157   1.278       .  A
O148       Cu154   1.997   1_556  S
O148        C158   1.277       .  A
O149       Cu154   2.003       .  S
O149        C159   1.277       .  A
O150       Cu155   2.027       .  S
O150        C159   1.279       .  A
O151       Cu155   2.029   1_556  S
O151        C158   1.279       .  A
O152       Cu155   2.007       .  S
O152        C157   1.278       .  A
O153       Cu155   2.006       .  S
O153        C156   1.279       .  A
Cu154      Cu155   2.375       .  S
C156       C1119   1.476       .  S
C157       C1115   1.474       .  S
C158       C1174   1.475       .  S
C159       C1151   1.476       .  S
O160       Cu168   2.005       .  S
O160        C170   1.277       .  A
O161       Cu168   2.008   1_556  S
O161        C171   1.280       .  A
O162       Cu168   2.023       .  S
O162        C172   1.279       .  A
O163       Cu168   2.024       .  S
O163        C173   1.279       .  A
O164       Cu169   2.012       .  S
O164        C173   1.278       .  A
O165       Cu169   2.011       .  S
O165        C172   1.278       .  A
O166       Cu169   2.017   1_556  S
O166        C171   1.277       .  A
O167       Cu169   2.016       .  S
O167        C170   1.278       .  A
Cu168      Cu169   2.374       .  S
C170       C1133   1.474       .  S
C171       C1103   1.480       .  S
C172       C1107   1.478       .  S
C173       C1111   1.479       .  S
N174        N175   1.321   1_554  A
N174        C178   1.351       .  A
N174       Cu182   2.099       .  S
N175        C176   1.341       .  A
N175       Cu181   2.053       .  S
C176        C177   1.382   1_556  A
C176        H179   1.081       .  S
C177       C1108   1.485       .  S
C177        C178   1.391       .  A
C178        H180   1.082       .  S
Cu181       N184   2.052       .  S
Cu182       N192   2.100       .  S
Cu183       N185   2.083       .  S
Cu183       N191   2.085       .  S
N184        N185   1.319   1_556  A
N184        C188   1.340       .  A
N185        C186   1.350       .  A
C186        C187   1.388       .  A
C186        H189   1.082       .  S
C187       C1116   1.481       .  S
C187        C188   1.383   1_554  A
C188        H190   1.081       .  S
N191        N192   1.325       .  A
N191        C195   1.344       .  A
N192        C193   1.349       .  A
C193        C194   1.390       .  A
C193        H196   1.082       .  S
C194        C195   1.386       .  A
C194       C1239   1.490       .  S
C195        H197   1.081       .  S
N198        N199   1.319       .  A
N198        C202   1.351       .  A
N198       Cu206   2.096       .  S
N199        C200   1.338       .  A
N199       Cu205   2.043       .  S
C200        C201   1.382       .  A
C200        H203   1.081       .  S
C201       C1099   1.483       .  S
C201        C202   1.392       .  A
C202        H204   1.082       .  S
Cu205       N208   2.042       .  S
Cu206       N216   2.100       .  S
Cu207       N209   2.096       .  S
Cu207       N215   2.099       .  S
N208        N209   1.320       .  A
N208        C212   1.338       .  A
N209        C210   1.353       .  A
C210        C211   1.393       .  A
C210        H213   1.082       .  S
C211       C1104   1.475       .  S
C211        C212   1.375       .  A
C212        H214   1.082       .  S
N215        N216   1.327       .  A
N215        C219   1.349       .  A
N216        C217   1.347       .  A
C217        C218   1.388       .  A
C217        H220   1.082       .  S
C218        C219   1.386       .  A
C218       C1090   1.488       .  S
C219        H221   1.082       .  S
N222        N223   1.320       .  A
N222        C226   1.347       .  A
N222       Cu230   2.078       .  S
N223        C224   1.341       .  A
N223       Cu229   2.049       .  S
C224        C225   1.383       .  A
C224        H227   1.081       .  S
C225       C1085   1.476       .  S
C225        C226   1.385       .  A
C226        H228   1.082       .  S
Cu229       N232   2.048       .  S
Cu230       N240   2.079       .  S
Cu231       N233   2.090       .  S
Cu231       N239   2.092       .  S
N232        N233   1.321       .  A
N232        C236   1.339       .  A
N233        C234   1.351       .  A
C234        C235   1.390       .  A
C234        H237   1.082       .  S
C235       C1081   1.473       .  S
C235        C236   1.375       .  A
C236        H238   1.082       .  S
N239        N240   1.324       .  A
N239        C243   1.346       .  A
N240        C241   1.346       .  A
C241        C242   1.385       .  A
C241        H244   1.082       .  S
C242        C243   1.389       .  A
C242       C1072   1.485       .  S
C243        H245   1.082       .  S
O246       Cu254   2.001   1_655  S
O246        C256   1.276       .  A
O247       Cu254   2.004       .  S
O247        C257   1.279       .  A
O248       Cu254   2.021       .  S
O248        C258   1.279       .  A
O249       Cu254   2.020       .  S
O249        C259   1.279       .  A
O250       Cu255   1.993       .  S
O250        C259   1.275       .  A
O251       Cu255   1.991       .  S
O251        C258   1.275       .  A
O252       Cu255   2.014       .  S
O252        C257   1.277       .  A
O253       Cu255   2.012   1_655  S
O253        C256   1.278       .  A
Cu254      Cu255   2.376       .  S
C256       C1188   1.471       .  S
C257       C1082   1.478       .  S
C258       C1063   1.469       .  S
C259       C1068   1.470       .  S
O260       Cu268   2.004       .  S
O260        C270   1.277       .  A
O261       Cu268   2.005       .  S
O261        C271   1.278       .  A
O262       Cu268   2.015   1_655  S
O262        C272   1.278       .  A
O263       Cu268   2.016       .  S
O263        C273   1.277       .  A
O264       Cu269   2.012       .  S
O264        C273   1.280       .  A
O265       Cu269   2.007   1_655  S
O265        C272   1.278       .  A
O266       Cu269   2.017       .  S
O266        C271   1.278       .  A
O267       Cu269   2.014       .  S
O267        C270   1.278       .  A
Cu268      Cu269   2.375       .  S
C270       C1059   1.473       .  S
C271       C1055   1.473       .  S
C272       C1100   1.474       .  S
C273       C1051   1.480       .  S
N274        N275   1.320       .  A
N274        C278   1.349       .  A
N274       Cu282   2.082       .  S
N275        C276   1.340       .  A
N275       Cu281   2.052   1_455  S
C276        C277   1.383       .  A
C276        H279   1.081   1_455  S
C277       C1060   1.480       .  S
C277        C278   1.388       .  A
C278        H280   1.082       .  S
Cu281       N284   2.052   1_655  S
Cu282       N292   2.084       .  S
Cu283       N285   2.081       .  S
Cu283       N291   2.083       .  S
N284        N285   1.320       .  A
N284        C288   1.339       .  A
N285        C286   1.349       .  A
C286        C287   1.387       .  A
C286        H289   1.082       .  S
C287       C1067   1.480       .  S
C287        C288   1.383       .  A
C288        H290   1.081   1_455  S
N291        N292   1.323       .  A
N291        C295   1.346       .  A
N292        C293   1.345       .  A
C293        C294   1.389       .  A
C293        H296   1.081       .  S
C294        C295   1.390       .  A
C294       C1199   1.491       .  S
C295        H297   1.081       .  S
N298        N299   1.320       .  A
N298        C302   1.351       .  A
N298       Cu306   2.088       .  S
N299        C300   1.341       .  A
N299       Cu305   2.055       .  S
C300        C301   1.378       .  A
C300        H303   1.082       .  S
C301       C1052   1.478       .  S
C301        C302   1.391       .  A
C302        H304   1.081       .  S
Cu305       N308   2.054       .  S
Cu306       N316   2.091       .  S
Cu307       N309   2.090       .  S
Cu307       N315   2.092       .  S
N308        N309   1.320       .  A
N308        C312   1.339       .  A
N309        C310   1.352       .  A
C310        C311   1.390       .  A
C310        H313   1.082       .  S
C311       C1047   1.484       .  S
C311        C312   1.382       .  A
C312        H314   1.081       .  S
N315        N316   1.325       .  A
N315        C319   1.347       .  A
N316        C317   1.345       .  A
C317        C318   1.390       .  A
C317        H320   1.081       .  S
C318        C319   1.389       .  A
C318       C1038   1.493       .  S
C319        H321   1.081       .  S
N322        N323   1.318       .  A
N322        C326   1.349       .  A
N322       Cu330   2.082       .  S
N323        C324   1.339       .  A
N323       Cu329   2.047       .  S
C324        C325   1.384       .  A
C324        H327   1.081       .  S
C325       C1029   1.481       .  S
C325        C326   1.388       .  A
C326        H328   1.082       .  S
Cu329       N332   2.046       .  S
Cu330       N340   2.085       .  S
Cu331       N333   2.078       .  S
Cu331       N339   2.081       .  S
N332        N333   1.320       .  A
N332        C336   1.336       .  A
N333        C334   1.350       .  A
C334        C335   1.388       .  A
C334        H337   1.082       .  S
C335       C1033   1.478       .  S
C335        C336   1.382       .  A
C336        H338   1.081       .  S
N339        N340   1.324       .  A
N339        C343   1.346       .  A
N340        C341   1.343       .  A
C341        C342   1.389       .  A
C341        H344   1.081       .  S
C342        C343   1.387       .  A
C342       C1020   1.488       .  S
C343        H345   1.081       .  S
O346       Cu354   2.026   1_565  S
O346        C356   1.279       .  A
O347       Cu354   2.023       .  S
O347        C357   1.279       .  A
O348       Cu354   1.995       .  S
O348        C358   1.276       .  A
O349       Cu354   1.995       .  S
O349        C359   1.276       .  A
O350       Cu355   2.027       .  S
O350        C359   1.279       .  A
O351       Cu355   2.029       .  S
O351        C358   1.279       .  A
O352       Cu355   1.992       .  S
O352        C357   1.276       .  A
O353       Cu355   1.992   1_565  S
O353        C356   1.276       .  A
Cu354      Cu355   2.376       .  S
C356       C1192   1.471       .  S
C357       C1030   1.471       .  S
C358       C1011   1.473       .  S
C359       C1015   1.473       .  S
O360       Cu368   1.995       .  S
O360        C370   1.276       .  A
O361       Cu368   1.996       .  S
O361        C371   1.276       .  A
O362       Cu368   2.038   1_565  S
O362        C372   1.281       .  A
O363       Cu368   2.037       .  S
O363        C373   1.280       .  A
O364       Cu369   1.993       .  S
O364        C373   1.276       .  A
O365       Cu369   1.989   1_565  S
O365        C372   1.275       .  A
O366       Cu369   2.022       .  S
O366        C371   1.279       .  A
O367       Cu369   2.022       .  S
O367        C370   1.279       .  A
Cu368      Cu369   2.375       .  S
C370       C1007   1.471       .  S
C371       C1003   1.472       .  S
C372       C1170   1.475       .  S
C373        C999   1.475       .  S
N374        N375   1.319   1_545  A
N374        C378   1.350       .  A
N374       Cu382   2.081       .  S
N375        C376   1.339       .  A
N375       Cu381   2.050       .  S
C376        C377   1.384   1_565  A
C376        H379   1.081       .  S
C377       C1004   1.482       .  S
C377        C378   1.389       .  A
C378        H380   1.082       .  S
Cu381       N384   2.050   1_565  S
Cu382       N392   2.084       .  S
Cu383       N385   2.093       .  S
Cu383       N391   2.095       .  S
N384        N385   1.320       .  A
N384        C388   1.338       .  A
N385        C386   1.352       .  A
C386        C387   1.391       .  A
C386        H389   1.082       .  S
C387       C1016   1.484       .  S
C387        C388   1.383       .  A
C388        H390   1.081   1_545  S
N391        N392   1.326       .  A
N391        C395   1.348       .  A
N392        C393   1.344       .  A
C393        C394   1.386       .  A
C393        H396   1.081       .  S
C394        C395   1.388       .  A
C394       C1279   1.486       .  S
C395        H397   1.082       .  S
N398        N399   1.318       .  A
N398        C402   1.353       .  A
N398       Cu406   2.094       .  S
N399        C400   1.337       .  A
N399       Cu405   2.048       .  S
C400        C401   1.385       .  A
C400        H403   1.080       .  S
C401       C1000   1.490       .  S
C401        C402   1.393       .  A
C402        H404   1.082       .  S
Cu405       N408   2.048       .  S
Cu406       N416   2.097       .  S
Cu407       N409   2.085       .  S
Cu407       N415   2.089       .  S
N408        N409   1.319       .  A
N408        C412   1.338       .  A
N409        C410   1.350       .  A
C410        C411   1.389       .  A
C410        H413   1.082       .  S
C411        C995   1.482       .  S
C411        C412   1.383       .  A
C412        H414   1.081       .  S
N415        N416   1.326       .  A
N415        C419   1.348       .  A
N416        C417   1.345       .  A
C417        C418   1.388       .  A
C417        H420   1.081       .  S
C418        C419   1.387       .  A
C418        C986   1.488       .  S
C419        H421   1.082       .  S
O422       Cu430   2.010   1_556  S
O422        C432   1.279       .  A
O423       Cu430   2.010       .  S
O423        C433   1.278       .  A
O424       Cu430   2.012       .  S
O424        C434   1.277       .  A
O425       Cu430   2.013       .  S
O425        C435   1.276       .  A
O426       Cu431   2.024       .  S
O426        C435   1.281       .  A
O427       Cu431   2.014       .  S
O427        C434   1.279       .  A
O428       Cu431   2.019       .  S
O428        C433   1.278       .  A
O429       Cu431   2.018   1_556  S
O429        C432   1.278       .  A
Cu430      Cu431   2.374       .  S
C432       C1048   1.475       .  S
C433        C974   1.477       .  S
C434        C981   1.476       .  S
C435        C977   1.482       .  S
N436        N437   1.320       .  A
N436        C440   1.349       .  A
N436       Cu444   2.086       .  S
N437        C438   1.339       .  A
N437       Cu443   2.045       .  S
C438        C439   1.376       .  A
C438        H441   1.082       .  S
C439       C1120   1.473       .  S
C439        C440   1.390       .  A
C440        H442   1.082       .  S
Cu443       N446   2.044       .  S
Cu444       N454   2.088       .  S
Cu445       N447   2.098       .  S
Cu445       N453   2.101       .  S
N446        N447   1.319       .  A
N446        C450   1.339       .  A
N447        C448   1.352       .  A
C448        C449   1.392       .  A
C448        H451   1.082       .  S
C449        C982   1.484       .  S
C449        C450   1.382       .  A
C450        H452   1.081       .  S
N453        N454   1.326       .  A
N453        C457   1.346   1_554  A
N454        C455   1.348   1_554  A
C455        C456   1.387       .  A
C455        H458   1.082       .  S
C456        C457   1.390       .  A
C456       C1209   1.491       .  S
C457        H459   1.081       .  S
O460       Cu468   2.008       .  S
O460        C470   1.278       .  A
O461       Cu468   2.009   1_655  S
O461        C471   1.280       .  A
O462       Cu468   2.016       .  S
O462        C472   1.278       .  A
O463       Cu468   2.017       .  S
O463        C473   1.278       .  A
O464       Cu469   1.997       .  S
O464        C473   1.276       .  A
O465       Cu469   1.999       .  S
O465        C472   1.277       .  A
O466       Cu469   2.007   1_655  S
O466        C471   1.276       .  A
O467       Cu469   2.006       .  S
O467        C470   1.277       .  A
Cu468      Cu469   2.376       .  S
C470        C961   1.473       .  S
C471       C1138   1.476       .  S
C472        C969   1.471       .  S
C473        C966   1.470       .  S
N474        N475   1.320       .  A
N474        C478   1.350       .  A
N474       Cu482   2.083       .  S
N475        C476   1.337       .  A
N475       Cu481   2.048       .  S
C476        C477   1.383       .  A
C476        H479   1.081       .  S
C477       C1064   1.481       .  S
C477        C478   1.389       .  A
C478        H480   1.082       .  S
Cu481       N484   2.048       .  S
Cu482       N492   2.086       .  S
Cu483       N485   2.077       .  S
Cu483       N491   2.080       .  S
N484        N485   1.318       .  A
N484        C488   1.338       .  A
N485        C486   1.349       .  A
C486        C487   1.388       .  A
C486        H489   1.082       .  S
C487        C970   1.480       .  S
C487        C488   1.383       .  A
C488        H490   1.081       .  S
N491        N492   1.325       .  A
N491        C495   1.342   1_455  A
N492        C493   1.347       .  A
C493        C494   1.388   1_455  A
C493        H496   1.081       .  S
C494        C495   1.386       .  A
C494       C1259   1.487       .  S
C495        H497   1.081       .  S
N498        N499   1.321       .  A
N498        C502   1.352       .  A
N498       Cu506   2.104       .  S
N499        C500   1.339       .  A
N499       Cu505   2.050       .  S
C500        C501   1.381       .  A
C500        H503   1.081       .  S
C501        C973   1.485       .  S
C501        C502   1.392       .  A
C502        H504   1.082       .  S
Cu505       N508   2.051       .  S
Cu506       N516   2.105       .  S
Cu507       N509   2.076       .  S
Cu507       N515   2.079       .  S
N508        N509   1.319       .  A
N508        C512   1.341       .  A
N509        C510   1.347       .  A
C510        C511   1.386       .  A
C510        H513   1.082       .  S
C511        C962   1.477       .  S
C511        C512   1.383       .  A
C512        H514   1.081       .  S
N515        N516   1.325       .  A
N515        C519   1.344       .  A
N516        C517   1.350       .  A
C517        C518   1.391       .  A
C517        H520   1.082       .  S
C518        C519   1.385       .  A
C518        C952   1.489       .  S
C519        H521   1.081       .  S
O522       Cu530   2.017       .  S
O522        C532   1.278       .  A
O523       Cu530   2.018   1_556  S
O523        C533   1.278       .  A
O524       Cu530   1.991       .  S
O524        C534   1.276       .  A
O525       Cu530   1.994       .  S
O525        C535   1.276       .  A
O526       Cu531   2.032       .  S
O526        C535   1.280       .  A
O527       Cu531   2.033       .  S
O527        C534   1.280       .  A
O528       Cu531   1.996   1_556  S
O528        C533   1.276       .  A
O529       Cu531   1.996       .  S
O529        C532   1.276       .  A
Cu530      Cu531   2.376       .  S
C532        C940   1.470       .  S
C533        C996   1.471       .  S
C534        C943   1.473       .  S
C535        C947   1.474       .  S
N536        N537   1.320       .  A
N536        C540   1.352       .  A
N536       Cu544   2.102       .  S
N537        C538   1.340       .  A
N537       Cu543   2.053       .  S
C538        C539   1.384       .  A
C538        H541   1.081       .  S
C539       C1112   1.488       .  S
C539        C540   1.392       .  A
C540        H542   1.082       .  S
Cu543       N546   2.052       .  S
Cu544       N554   2.104       .  S
Cu545       N547   2.093       .  S
Cu545       N553   2.096       .  S
N546        N547   1.319       .  A
N546        C550   1.339       .  A
N547        C548   1.352       .  A
C548        C549   1.391       .  A
C548        H551   1.082       .  S
C549        C948   1.486       .  S
C549        C550   1.384       .  A
C550        H552   1.081       .  S
N553        N554   1.326       .  A
N553        C557   1.346       .  A
N554        C555   1.351   1_554  A
C555        C556   1.388       .  A
C555        H558   1.082       .  S
C556        C557   1.387   1_556  A
C556       C1289   1.490       .  S
C557        H559   1.082       .  S
O560       Cu568   2.028   1_565  S
O560        C570   1.279       .  A
O561       Cu568   2.026       .  S
O561        C571   1.280       .  A
O562       Cu568   1.992       .  S
O562        C572   1.276       .  A
O563       Cu568   2.003       .  S
O563        C573   1.277       .  A
O564       Cu569   2.033       .  S
O564        C573   1.281       .  A
O565       Cu569   2.035       .  S
O565        C572   1.280       .  A
O566       Cu569   1.991       .  S
O566        C571   1.275       .  A
O567       Cu569   1.996   1_565  S
O567        C570   1.276       .  A
Cu568      Cu569   2.375       .  S
C570       C1156   1.474       .  S
C571        C927   1.472       .  S
C572        C931   1.474       .  S
C573        C935   1.479       .  S
N574        N575   1.321       .  A
N574        C578   1.351       .  A
N574       Cu582   2.087       .  S
N575        C576   1.339       .  A
N575       Cu581   2.061       .  S
C576        C577   1.384       .  A
C576        H579   1.080       .  S
C577       C1012   1.485       .  S
C577        C578   1.389       .  A
C578        H580   1.082       .  S
Cu581       N584   2.062       .  S
Cu582       N592   2.089       .  S
Cu583       N585   2.085       .  S
Cu583       N591   2.086       .  S
N584        N585   1.319       .  A
N584        C588   1.343       .  A
N585        C586   1.349       .  A
C586        C587   1.388       .  A
C586        H589   1.082       .  S
C587        C936   1.486       .  S
C587        C588   1.387       .  A
C588        H590   1.081       .  S
N591        N592   1.325       .  A
N591        C595   1.343       .  A
N592        C593   1.349       .  A
C593        C594   1.388       .  A
C593        H596   1.082       .  S
C594        C595   1.386       .  A
C594       C1249   1.486   1_545  S
C595        H597   1.081       .  S
N598        N599   1.319       .  A
N598        C602   1.350       .  A
N598       Cu606   2.082       .  S
N599        C600   1.337       .  A
N599       Cu605   2.046       .  S
C600        C601   1.382       .  A
C600        H603   1.081       .  S
C601        C939   1.479       .  S
C601        C602   1.389       .  A
C602        H604   1.082       .  S
Cu605       N608   2.046       .  S
Cu606       N616   2.086       .  S
Cu607       N609   2.087       .  S
Cu607       N615   2.090       .  S
N608        N609   1.319       .  A
N608        C612   1.338       .  A
N609        C610   1.350       .  A
C610        C611   1.389       .  A
C610        H613   1.082       .  S
C611        C928   1.482       .  S
C611        C612   1.383       .  A
C612        H614   1.081       .  S
N615        N616   1.325       .  A
N615        C619   1.346       .  A
N616        C617   1.345       .  A
C617        C618   1.388       .  A
C617        H620   1.081       .  S
C618        C619   1.389       .  A
C618        C918   1.490       .  S
C619        H621   1.081       .  S
O622       Cu630   2.027       .  S
O622        C632   1.279       .  A
O623       Cu630   2.018       .  S
O623        C633   1.277       .  A
O624       Cu630   2.012   1_565  S
O624        C634   1.278       .  A
O625       Cu630   2.017       .  S
O625        C635   1.281       .  A
O626       Cu631   2.009       .  S
O626        C635   1.276       .  A
O627       Cu631   2.004   1_565  S
O627        C634   1.277       .  A
O628       Cu631   2.020       .  S
O628        C633   1.280       .  A
O629       Cu631   2.017       .  S
O629        C632   1.279       .  A
Cu630      Cu631   2.374       .  S
C632        C913   1.482       .  S
C633        C909   1.483       .  S
C634       C1086   1.473       .  S
C635        C905   1.478       .  S
N636        N637   1.319       .  A
N636        C640   1.352       .  A
N636       Cu644   2.101       .  S
N637        C638   1.342       .  A
N637       Cu643   2.051       .  S
C638        C639   1.384       .  A
C638        H641   1.081       .  S
C639        C914   1.489       .  S
C639        C640   1.393       .  A
C640        H642   1.082       .  S
Cu643       N646   2.050       .  S
Cu644       N654   2.103       .  S
Cu645       N647   2.088       .  S
Cu645       N653   2.090       .  S
N646        N647   1.320       .  A
N646        C650   1.337       .  A
N647        C648   1.351       .  A
C648        C649   1.390       .  A
C648        H651   1.082       .  S
C649       C1008   1.483       .  S
C649        C650   1.383       .  A
C650        H652   1.080       .  S
N653        N654   1.327       .  A
N653        C657   1.350   1_545  A
N654        C655   1.346   1_545  A
C655        C656   1.384       .  A
C655        H658   1.082       .  S
C656        C657   1.383       .  A
C656       C1219   1.476       .  S
C657        H659   1.082       .  S
O660       Cu668   2.004       .  S
O660        C670   1.275       .  A
O661       Cu668   2.007       .  S
O661        C671   1.277       .  A
O662       Cu668   2.000   1_655  S
O662        C672   1.277       .  A
O663       Cu668   2.003       .  S
O663        C673   1.277       .  A
O664       Cu669   2.008       .  S
O664        C673   1.277       .  A
O665       Cu669   2.005   1_655  S
O665        C672   1.277       .  A
O666       Cu669   2.010       .  S
O666        C671   1.278       .  A
O667       Cu669   2.008       .  S
O667        C670   1.280       .  A
Cu668      Cu669   2.376       .  S
C670        C897   1.474       .  S
C671        C901   1.473       .  S
C672       C1034   1.467       .  S
C673        C893   1.470       .  S
N674        N675   1.317       .  A
N674        C678   1.348       .  A
N674       Cu682   2.074       .  S
N675        C676   1.340       .  A
N675       Cu681   2.044       .  S
C676        C677   1.383       .  A
C676        H679   1.081       .  S
C677        C902   1.478       .  S
C677        C678   1.387       .  A
C678        H680   1.082       .  S
Cu681       N684   2.043       .  S
Cu682       N692   2.077       .  S
Cu683       N685   2.105       .  S
Cu683       N691   2.107       .  S
N684        N685   1.321       .  A
N684        C688   1.336       .  A
N685        C686   1.353       .  A
C686        C687   1.393       .  A
C686        H689   1.082       .  S
C687       C1056   1.485       .  S
C687        C688   1.380       .  A
C688        H690   1.081       .  S
N691        N692   1.325       .  A
N691        C695   1.351       .  A
N692        C693   1.341       .  A
C693        C694   1.386       .  A
C693        H696   1.081       .  S
C694        C695   1.393       .  A
C694       C1299   1.493   1_455  S
C695        H697   1.081       .  S
N698        N699   1.320       .  A
N698        C702   1.351       .  A
N698       Cu706   2.090       .  S
N699        C700   1.339       .  A
N699       Cu705   2.051       .  S
C700        C701   1.377       .  A
C700        H703   1.082       .  S
C701        C906   1.477       .  S
C701        C702   1.392       .  A
C702        H704   1.082       .  S
Cu705       N708   2.051       .  S
Cu706       N716   2.093       .  S
Cu707       N709   2.080       .  S
Cu707       N715   2.083       .  S
N708        N709   1.320       .  A
N708        C712   1.339       .  A
N709        C710   1.349       .  A
C710        C711   1.387       .  A
C710        H713   1.082       .  S
C711        C894   1.476       .  S
C711        C712   1.381       .  A
C712        H714   1.082       .  S
N715        N716   1.325       .  A
N715        C719   1.345       .  A
N716        C717   1.346       .  A
C717        C718   1.389       .  A
C717        H720   1.081       .  S
C718        C719   1.387       .  A
C718        C884   1.488       .  S
C719        H721   1.081       .  S
N722        N723   1.320       .  A
N722        C726   1.351   1_655  A
N722       Cu730   2.088   1_655  S
N723        C724   1.337       .  A
N723       Cu729   2.043       .  S
C724        C725   1.381       .  A
C724        H727   1.081       .  S
C725        C965   1.480   1_655  S
C725        C726   1.390   1_655  A
C726        H728   1.082       .  S
Cu729       N732   2.043       .  S
Cu730       N740   2.091       .  S
Cu731       N733   2.084   1_455  S
Cu731       N739   2.088       .  S
N732        N733   1.320       .  A
N732        C736   1.339       .  A
N733        C734   1.350   1_655  A
C734        C735   1.390   1_455  A
C734        H737   1.082       .  S
C735        C898   1.472       .  S
C735        C736   1.375       .  A
C736        H738   1.082       .  S
N739        N740   1.325       .  A
N739        C743   1.345       .  A
N740        C741   1.347       .  A
C741        C742   1.389       .  A
C741        H744   1.081       .  S
C742        C743   1.389       .  A
C742       C1339   1.491       .  S
C743        H745   1.081       .  S
N746        N747   1.320   1_545  A
N746        C750   1.351       .  A
N746       Cu754   2.089       .  S
N747        C748   1.342       .  A
N747       Cu753   2.060       .  S
C748        C749   1.380   1_565  A
C748        H751   1.082       .  S
C749        C910   1.481       .  S
C749        C750   1.392       .  A
C750        H752   1.081       .  S
Cu753       N756   2.058       .  S
Cu754       N764   2.091       .  S
Cu755       N757   2.090       .  S
Cu755       N763   2.092       .  S
N756        N757   1.321   1_565  A
N756        C760   1.338       .  A
N757        C758   1.352       .  A
C758        C759   1.390       .  A
C758        H761   1.082       .  S
C759        C932   1.486       .  S
C759        C760   1.384   1_545  A
C760        H762   1.081       .  S
N763        N764   1.325       .  A
N763        C767   1.349       .  A
N764        C765   1.345       .  A
C765        C766   1.389       .  A
C765        H768   1.081       .  S
C766        C767   1.389       .  A
C766       C1329   1.491       .  S
C767        H769   1.081       .  S
N770        N771   1.320       .  A
N770        C774   1.353       .  A
N770       Cu778   2.099       .  S
N771        C772   1.340   1_554  A
N771       Cu777   2.050   1_554  S
C772        C773   1.377   1_556  A
C772        H775   1.082       .  S
C773        C978   1.480       .  S
C773        C774   1.394       .  A
C774        H776   1.082       .  S
Cu777       N780   2.050   1_556  S
Cu778       N788   2.103       .  S
Cu779       N781   2.091       .  S
Cu779       N787   2.094       .  S
N780        N781   1.320       .  A
N780        C784   1.337       .  A
N781        C782   1.353       .  A
C782        C783   1.391       .  A
C782        H785   1.082       .  S
C783        C944   1.485       .  S
C783        C784   1.383       .  A
C784        H786   1.081   1_554  S
N787        N788   1.326       .  A
N787        C791   1.349       .  A
N788        C789   1.346       .  A
C789        C790   1.391       .  A
C789        H792   1.081       .  S
C790        C791   1.389       .  A
C790       C1319   1.496       .  S
C791        H793   1.081       .  S
C794        C795   1.532       .  S
C794        C800   1.536       .  S
C794        C798   1.532       .  S
C794        C887   1.535       .  S
C795        H802   1.085       .  S
C795        C796   1.366       .  D
C796        C797   1.552       .  S
C796       C1041   1.494       .  S
C797        C801   1.546       .  S
C797        C799   1.554       .  S
C797        H803   1.110       .  S
C798        H804   1.086       .  S
C798        C799   1.374       .  D
C799        C874   1.498       .  S
C800        H805   1.084       .  S
C800        C801   1.363       .  D
C801        C989   1.484       .  S
C806        C807   1.535       .  S
C806        C812   1.533       .  S
C806        C810   1.534       .  S
C806        C921   1.534       .  S
C807        H814   1.085       .  S
C807        C808   1.366       .  D
C808        C809   1.545       .  S
C808       C1023   1.486       .  S
C809        C813   1.547       .  S
C809        C811   1.547       .  S
C809        H815   1.110       .  S
C810        H816   1.086       .  S
C810        C811   1.371       .  D
C811        C864   1.484       .  S
C812        H817   1.085       .  S
C812        C813   1.363       .  D
C813       C1127   1.485       .  S
C818        C819   1.531       .  S
C818        C824   1.531       .  S
C818        C822   1.526       .  S
C818       C1181   1.531       .  S
C819        H826   1.084       .  S
C819        C820   1.362       .  D
C820        C821   1.555       .  S
C820       C1093   1.488       .  S
C821        C825   1.552       .  S
C821        C823   1.568       .  S
C821        H827   1.109       .  S
C822        H828   1.083       .  S
C822        C823   1.377       .  D
C823        C854   1.517       .  S
C824        H829   1.086       .  S
C824        C825   1.365       .  D
C825       C1163   1.495       .  S
C830        C831   1.529       .  S
C830        C836   1.534       .  S
C830        C834   1.533       .  S
C830        C955   1.539       .  S
C831        H838   1.086       .  S
C831        C832   1.365       .  D
C832        C833   1.550       .  S
C832       C1145   1.495       .  S
C833        C837   1.546       .  S
C833        C835   1.562       .  S
C833        H839   1.108       .  S
C834        H840   1.082       .  S
C834        C835   1.381       .  D
C835        C844   1.516       .  S
C836        H841   1.081       .  S
C836        C837   1.362       .  D
C837       C1075   1.484       .  S
C842        C847   1.568       .  S
C842        C857   1.562       .  S
C842        C867   1.565       .  S
C842        C877   1.565       .  S
C843        C844   1.412       .  A
C843        C848   1.412       .  A
C843        H849   1.080       .  S
C844        C845   1.409       .  A
C845        C846   1.396       .  A
C845        H850   1.079       .  S
C846        C847   1.412       .  A
C846        H851   1.082       .  S
C847        C848   1.416       .  A
C848        H852   1.080       .  S
C853        C854   1.411       .  A
C853        C858   1.397       .  A
C853        H859   1.079       .  S
C854        C855   1.410       .  A
C855        C856   1.415       .  A
C855        H860   1.081       .  S
C856        C857   1.418       .  A
C856        H861   1.080       .  S
C857        C858   1.409       .  A
C858        H862   1.083       .  S
C863        C864   1.402       .  A
C863        C868   1.406       .  A
C863        H869   1.083       .  S
C864        C865   1.399       .  A
C865        C866   1.398       .  A
C865        H870   1.083       .  S
C866        C867   1.417       .  A
C866        H871   1.080       .  S
C867        C868   1.416       .  A
C868        H872   1.083       .  S
C873        C874   1.405       .  A
C873        C878   1.411       .  A
C873        H879   1.083       .  S
C874        C875   1.403       .  A
C875        C876   1.397       .  A
C875        H880   1.083       .  S
C876        C877   1.417       .  A
C876        H881   1.080       .  S
C877        C878   1.417       .  A
C878        H882   1.082       .  S
C883        C884   1.406       .  A
C883        C888   1.400       .  A
C883        H889   1.082       .  S
C884        C885   1.404       .  A
C885        C886   1.398       .  A
C885        H890   1.081       .  S
C886        C887   1.411       .  A
C886        H891   1.079       .  S
C887        C888   1.410       .  A
C888        H892   1.083       .  S
C893        H895   1.086       .  S
C893        C894   1.345       .  D
C894        H896   1.086       .  S
C897        H899   1.086       .  S
C897        C898   1.339   1_455  D
C898        H900   1.087       .  S
C901        H903   1.085       .  S
C901        C902   1.346       .  D
C902        H904   1.086       .  S
C905        H907   1.086       .  S
C905        C906   1.341       .  D
C906        H908   1.087       .  S
C909        H911   1.086       .  S
C909        C910   1.344       .  D
C910        H912   1.087       .  S
C913        H915   1.085       .  S
C913        C914   1.350       .  D
C914        H916   1.086       .  S
C917        C918   1.406       .  A
C917        C922   1.398       .  A
C917        H923   1.081       .  S
C918        C919   1.406       .  A
C919        C920   1.399       .  A
C919        H924   1.081       .  S
C920        C921   1.410       .  A
C920        H925   1.081       .  S
C921        C922   1.409       .  A
C922        H926   1.082       .  S
C927        H929   1.085       .  S
C927        C928   1.345       .  D
C928        H930   1.086       .  S
C931        H933   1.084       .  S
C931        C932   1.347       .  D
C932        H934   1.086       .  S
C935        H937   1.085       .  S
C935        C936   1.347       .  D
C936        H938   1.086       .  S
C939        H941   1.086       .  S
C939        C940   1.345       .  D
C940        H942   1.085       .  S
C943        H945   1.085       .  S
C943        C944   1.347       .  D
C944        H946   1.086       .  S
C947        H949   1.084       .  S
C947        C948   1.347       .  D
C948        H950   1.086       .  S
C951        C952   1.404       .  A
C951        C956   1.403       .  A
C951        H957   1.082       .  S
C952        C953   1.404       .  A
C953        C954   1.398       .  A
C953        H958   1.082       .  S
C954        C955   1.412       .  A
C954        H959   1.077       .  S
C955        C956   1.411       .  A
C956        H960   1.083       .  S
C961        H963   1.085       .  S
C961        C962   1.345       .  D
C962        H964   1.086       .  S
C965        H967   1.086       .  S
C965        C966   1.346       .  D
C966        H968   1.085   1_455  S
C969        H971   1.084       .  S
C969        C970   1.345       .  D
C970        H972   1.086       .  S
C973        H975   1.086       .  S
C973        C974   1.349       .  D
C974        H976   1.085       .  S
C977        H979   1.086       .  S
C977        C978   1.341       .  D
C978        H980   1.087       .  S
C981        H983   1.084       .  S
C981        C982   1.350       .  D
C982        H984   1.086       .  S
C985        C986   1.405       .  A
C985        C990   1.396       .  A
C985        H991   1.082       .  S
C986        C987   1.409       .  A
C987        C988   1.403       .  A
C987        H992   1.082       .  S
C988        C989   1.402       .  A
C988        H993   1.079       .  S
C989        C990   1.404       .  A
C990        H994   1.084       .  S
C995        H997   1.086       .  S
C995        C996   1.346       .  D
C996        H998   1.084       .  S
C999       H1001   1.083       .  S
C999       C1000   1.348       .  D
C1000      H1002   1.086       .  S
C1003      H1005   1.085       .  S
C1003      C1004   1.345       .  D
C1004      H1006   1.086       .  S
C1007      H1009   1.084       .  S
C1007      C1008   1.346       .  D
C1008      H1010   1.086       .  S
C1011      H1013   1.084       .  S
C1011      C1012   1.346       .  D
C1012      H1014   1.086       .  S
C1015      H1017   1.084       .  S
C1015      C1016   1.347       .  D
C1016      H1018   1.086       .  S
C1019      C1020   1.409       .  A
C1019      C1024   1.402       .  A
C1019      H1025   1.081       .  S
C1020      C1021   1.405       .  A
C1021      C1022   1.393       .  A
C1021      H1026   1.081       .  S
C1022      C1023   1.405       .  A
C1022      H1027   1.083       .  S
C1023      C1024   1.402       .  A
C1024      H1028   1.080       .  S
C1029      H1031   1.086       .  S
C1029      C1030   1.345       .  D
C1030      H1032   1.085       .  S
C1033      H1035   1.086       .  S
C1033      C1034   1.346       .  D
C1034      H1036   1.084       .  S
C1037      C1038   1.405       .  A
C1037      C1042   1.396       .  A
C1037      H1043   1.081       .  S
C1038      C1039   1.410       .  A
C1039      C1040   1.404       .  A
C1039      H1044   1.081       .  S
C1040      C1041   1.403       .  A
C1040      H1045   1.079       .  S
C1041      C1042   1.408       .  A
C1042      H1046   1.083       .  S
C1047      H1049   1.086       .  S
C1047      C1048   1.349       .  D
C1048      H1050   1.085       .  S
C1051      H1053   1.086       .  S
C1051      C1052   1.343       .  D
C1052      H1054   1.087       .  S
C1055      H1057   1.084       .  S
C1055      C1056   1.349       .  D
C1056      H1058   1.086       .  S
C1059      H1061   1.085       .  S
C1059      C1060   1.346       .  D
C1060      H1062   1.086       .  S
C1063      H1065   1.084       .  S
C1063      C1064   1.345       .  D
C1064      H1066   1.086       .  S
C1067      H1069   1.086       .  S
C1067      C1068   1.344       .  D
C1068      H1070   1.084       .  S
C1071      C1072   1.408       .  A
C1071      C1076   1.403       .  A
C1071      H1077   1.082       .  S
C1072      C1073   1.404       .  A
C1073      C1074   1.396       .  A
C1073      H1078   1.082       .  S
C1074      C1075   1.405       .  A
C1074      H1079   1.083       .  S
C1075      C1076   1.402       .  A
C1076      H1080   1.078       .  S
C1081      H1083   1.087       .  S
C1081      C1082   1.341       .  D
C1082      H1084   1.086       .  S
C1085      H1087   1.086       .  S
C1085      C1086   1.346       .  D
C1086      H1088   1.085       .  S
C1089      C1090   1.405       .  A
C1089      C1094   1.399       .  A
C1089      H1095   1.083       .  S
C1090      C1091   1.407       .  A
C1091      C1092   1.404       .  A
C1091      H1096   1.083       .  S
C1092      C1093   1.404       .  A
C1092      H1097   1.077       .  S
C1093      C1094   1.406       .  A
C1094      H1098   1.083       .  S
C1099      H1101   1.086       .  S
C1099      C1100   1.348       .  D
C1100      H1102   1.084       .  S
C1103      H1105   1.086       .  S
C1103      C1104   1.341       .  D
C1104      H1106   1.087       .  S
C1107      H1109   1.085       .  S
C1107      C1108   1.349       .  D
C1108      H1110   1.086       .  S
C1111      H1113   1.084       .  S
C1111      C1112   1.350       .  D
C1112      H1114   1.086       .  S
C1115      H1117   1.085       .  S
C1115      C1116   1.347       .  D
C1116      H1118   1.086       .  S
C1119      H1121   1.086       .  S
C1119      C1120   1.341       .  D
C1120      H1122   1.087       .  S
C1123      C1124   1.405       .  A
C1123      C1128   1.393       .  A
C1123      H1129   1.081       .  S
C1124      C1125   1.409       .  A
C1125      C1126   1.406       .  A
C1125      H1130   1.082       .  S
C1126      C1127   1.403       .  A
C1126      H1131   1.080       .  S
C1127      C1128   1.404       .  A
C1128      H1132   1.084       .  S
C1133      H1135   1.085       .  S
C1133      C1134   1.347       .  D
C1134      H1136   1.086       .  S
C1137      H1139   1.087       .  S
C1137      C1138   1.339       .  D
C1138      H1140   1.086       .  S
C1141      C1142   1.410       .  A
C1141      C1146   1.406       .  A
C1141      H1147   1.082       .  S
C1142      C1143   1.405       .  A
C1143      C1144   1.395       .  A
C1143      H1148   1.081       .  S
C1144      C1145   1.406       .  A
C1144      H1149   1.083       .  S
C1145      C1146   1.405       .  A
C1146      H1150   1.079       .  S
C1151      H1153   1.084       .  S
C1151      C1152   1.348       .  D
C1152      H1154   1.086       .  S
C1155      H1157   1.086       .  S
C1155      C1156   1.347       .  D
C1156      H1158   1.084       .  S
C1159      C1160   1.406       .  A
C1159      C1164   1.395       .  A
C1159      H1165   1.081       .  S
C1160      C1161   1.410       .  A
C1161      C1162   1.408       .  A
C1161      H1166   1.082       .  S
C1162      C1163   1.405       .  A
C1162      H1167   1.078       .  S
C1163      C1164   1.406       .  A
C1164      H1168   1.083       .  S
C1169      H1171   1.086       .  S
C1169      C1170   1.347       .  D
C1170      H1172   1.084       .  S
C1173      H1175   1.086       .  S
C1173      C1174   1.349       .  D
C1174      H1176   1.083       .  S
C1177      C1178   1.406       .  A
C1177      C1182   1.396       .  A
C1177      H1183   1.081       .  S
C1178      C1179   1.405       .  A
C1179      C1180   1.399       .  A
C1179      H1184   1.081       .  S
C1180      C1181   1.409       .  A
C1180      H1185   1.083       .  S
C1181      C1182   1.409       .  A
C1182      H1186   1.079       .  S
C1187      H1189   1.086       .  S
C1187      C1188   1.344       .  D
C1188      H1190   1.085       .  S
C1191      H1193   1.086       .  S
C1191      C1192   1.347       .  D
C1192      H1194   1.084       .  S
C1195      C1196   1.410       .  A
C1195      C1200   1.399       .  A
C1195      H1201   1.081       .  S
C1196      C1197   1.410       .  A
C1197      C1198   1.399       .  A
C1197      H1202   1.081       .  S
C1198      C1199   1.406       .  A
C1198      H1203   1.082       .  S
C1199      C1200   1.406       .  A
C1200      H1204   1.081       .  S
C1205      C1206   1.405       .  A
C1205      C1210   1.396       .  A
C1205      H1211   1.083       .  S
C1206      C1207   1.403       .  A
C1207      C1208   1.406       .  A
C1207      H1212   1.083       .  S
C1208      C1209   1.411       .  A
C1208      H1213   1.082       .  S
C1209      C1210   1.405       .  A
C1210      H1214   1.082       .  S
C1215      C1216   1.407       .  A
C1215      C1220   1.392       .  A
C1215      H1221   1.083       .  S
C1216      C1217   1.405       .  A
C1217      C1218   1.409       .  A
C1217      H1222   1.083       .  S
C1218      C1219   1.408       .  A
C1218      H1223   1.083   1_565  S
C1219      C1220   1.398       .  A
C1220      H1224   1.084       .  S
C1225      C1226   1.399       .  A
C1225      C1230   1.398   1_556  A
C1225      H1231   1.084       .  S
C1226      C1227   1.405       .  A
C1227      C1228   1.412   1_565  A
C1227      H1232   1.083   1_565  S
C1228      C1229   1.416   1_546  A
C1228      H1233   1.083       .  S
C1229      C1230   1.419       .  A
C1230      H1234   1.080       .  S
C1235      C1236   1.411       .  A
C1235      C1240   1.397       .  A
C1235      H1241   1.077       .  S
C1236      C1237   1.411       .  A
C1237      C1238   1.403       .  A
C1237      H1242   1.083       .  S
C1238      C1239   1.405       .  A
C1238      H1243   1.082       .  S
C1239      C1240   1.404       .  A
C1240      H1244   1.082       .  S
C1245      C1246   1.405       .  A
C1245      C1250   1.394   1_565  A
C1245      H1251   1.083       .  S
C1246      C1247   1.402       .  A
C1247      C1248   1.403       .  A
C1247      H1252   1.079       .  S
C1248      C1249   1.408       .  A
C1248      H1253   1.082       .  S
C1249      C1250   1.404   1_565  A
C1250      H1254   1.082       .  S
C1255      C1256   1.405       .  A
C1255      C1260   1.393       .  A
C1255      H1261   1.083       .  S
C1256      C1257   1.403       .  A
C1257      C1258   1.402       .  A
C1257      H1262   1.079       .  S
C1258      C1259   1.408       .  A
C1258      H1263   1.081       .  S
C1259      C1260   1.405       .  A
C1260      H1264   1.081       .  S
C1265      C1266   1.408       .  A
C1265      C1270   1.394       .  A
C1265      H1271   1.078       .  S
C1266      C1267   1.413       .  A
C1267      C1268   1.410   1_655  A
C1267      H1272   1.079       .  S
C1268      C1269   1.413       .  A
C1268      H1273   1.080   1_565  S
C1269      C1270   1.413   1_455  A
C1270      H1274   1.083       .  S
C1275      C1276   1.410       .  A
C1275      C1280   1.402       .  A
C1275      H1281   1.083       .  S
C1276      C1277   1.411       .  A
C1277      C1278   1.396       .  A
C1277      H1282   1.077       .  S
C1278      C1279   1.403       .  A
C1278      H1283   1.082       .  S
C1279      C1280   1.405       .  A
C1280      H1284   1.082       .  S
C1285      C1286   1.406       .  A
C1285      C1290   1.398       .  A
C1285      H1291   1.083       .  S
C1286      C1287   1.405       .  A
C1287      C1288   1.407       .  A
C1287      H1292   1.081       .  S
C1288      C1289   1.408       .  A
C1288      H1293   1.082       .  S
C1289      C1290   1.404       .  A
C1290      H1294   1.083   1_556  S
C1295      C1296   1.404       .  A
C1295      C1300   1.405       .  A
C1295      H1301   1.081       .  S
C1296      C1297   1.406       .  A
C1297      C1298   1.395       .  A
C1297      H1302   1.083       .  S
C1298      C1299   1.407       .  A
C1298      H1303   1.081       .  S
C1299      C1300   1.409       .  A
C1300      H1304   1.081       .  S
C1305      C1306   1.400       .  A
C1305      C1310   1.406   1_556  A
C1305      H1311   1.083   1_556  S
C1306      C1307   1.403       .  A
C1307      C1308   1.403   1_655  A
C1307      H1312   1.083       .  S
C1308      C1309   1.417   1_556  A
C1308      H1313   1.078       .  S
C1309      C1310   1.420   1_455  A
C1310      H1314   1.083       .  S
C1315      C1316   1.410       .  A
C1315      C1320   1.396       .  A
C1315      H1321   1.082       .  S
C1316      C1317   1.405       .  A
C1317      C1318   1.407       .  A
C1317      H1322   1.076       .  S
C1318      C1319   1.410       .  A
C1318      H1323   1.081       .  S
C1319      C1320   1.404       .  A
C1320      H1324   1.081       .  S
C1325      C1326   1.404       .  A
C1325      C1330   1.404       .  A
C1325      H1331   1.075       .  S
C1326      C1327   1.409       .  A
C1327      C1328   1.397       .  A
C1327      H1332   1.083       .  S
C1328      C1329   1.405       .  A
C1328      H1333   1.081       .  S
C1329      C1330   1.408       .  A
C1330      H1334   1.082       .  S
C1335      C1336   1.410       .  A
C1335      C1340   1.401       .  A
C1335      H1341   1.083       .  S
C1336      C1337   1.411       .  A
C1337      C1338   1.398       .  A
C1337      H1342   1.078       .  S
C1338      C1339   1.405       .  A
C1338      H1343   1.081       .  S
C1339      C1340   1.406       .  A
C1340      H1344   1.082       .  S
C1345      C1346   1.418       .  A
C1345      C1350   1.413       .  A
C1345      H1351   1.083   1_545  S
C1346      C1347   1.418       .  A
C1347      C1348   1.402       .  A
C1347      H1352   1.079       .  S
C1348      C1349   1.400       .  A
C1348      H1353   1.083       .  S
C1349      C1350   1.405       .  A
C1350      H1354   1.083       .  S
