geometry optimzed in LAMMPS
_audit_creation_date              2020-11-30 
_audit_creation_method            'lammps2cif' 
_symmetry_space_group_name_H-M    'P1' 
_symmetry_Int_Tables_number       1 
_symmetry_cell_setting            triclinic 
loop_ 
_symmetry_equiv_pos_as_xyz 
  x,y,z 
_cell_length_a                    53.59205013 
_cell_length_b                    43.598968716070374 
_cell_length_c                    47.127396655858675 
_cell_angle_alpha                 89.99545109329256 
_cell_angle_beta                  90.06056329361343 
_cell_angle_gamma                 90.00906825723257 
loop_ 
_atom_site_label 
_atom_site_type_symbol 
_atom_site_fract_x 
_atom_site_fract_y 
_atom_site_fract_z 
_atom_site_charge 
O1          O  0.33724327  0.88154484  0.36704326    -0.57100
C2          C  0.34309896  0.91948375  0.44349265     0.75600
O3          O  0.32418280  0.81883170  0.44282418    -0.58200
C4          C  0.33509263  0.85597982  0.35456085     0.75500
C5          C  0.39481723  0.84277372  0.41995041     0.77900
Cd6        Cd  0.34324715  0.86103301  0.41504778     1.37500
O7          O  0.33266556  0.91591678  0.41962679    -0.57100
O8          O  0.38741909  0.86251852  0.40220667    -0.55900
C9          C  0.30230016  0.82980412  0.44267909     0.77900
O10         O  0.37822202  0.83104368  0.43569904    -0.58200
O11         O  0.35359020  0.89612824  0.45393257    -0.56700
O12         O  0.33632519  0.83247049  0.37026386    -0.56700
O13         O  0.29942077  0.85456796  0.42916223    -0.55900
O14         O  0.14605683  0.66771069  0.62665077    -0.57100
C15         C  0.13240240  0.62848123  0.55121520     0.75600
O16         O  0.08993898  0.71730775  0.57244154    -0.58200
C17         C  0.13813721  0.68970359  0.64163559     0.75500
C18         C  0.16587868  0.72239742  0.55186411     0.77900
Cd19       Cd  0.12845139  0.68618000  0.58099776     1.37500
O20         O  0.13368838  0.63018244  0.57799860    -0.57100
O21         O  0.17069568  0.69721986  0.56393608    -0.55900
C22         C  0.07493001  0.69538107  0.57685176     0.77900
O23         O  0.14371106  0.73211219  0.55430671    -0.58200
O24         O  0.12951745  0.65362621  0.53813335    -0.56700
O25         O  0.12678426  0.71065440  0.62836712    -0.56700
O26         O  0.08480224  0.66969765  0.58218967    -0.55900
O27         O  0.15607507  0.38415291  0.37265658    -0.57100
C28         C  0.14125988  0.42693291  0.44561514     0.75600
O29         O  0.10350549  0.34024459  0.44149527    -0.58200
C30         C  0.15011845  0.36018486  0.35908902     0.75500
C31         C  0.17801231  0.33080098  0.44666586     0.77900
Cd32       Cd  0.13983501  0.36699768  0.41920658     1.37500
O33         O  0.14013641  0.42373694  0.41897235    -0.57100
O34         O  0.18211719  0.35793054  0.43834799    -0.55900
C35         C  0.08721833  0.35303847  0.42604442     0.77900
O36         O  0.15647512  0.32017022  0.44169649    -0.58200
O37         O  0.14233368  0.40244432  0.45996520    -0.56700
O38         O  0.14070578  0.33888926  0.37375959    -0.56700
O39         O  0.09532010  0.37206025  0.40808687    -0.55900
O40         O  0.32561455  0.11829864  0.57714537    -0.57100
C41         C  0.32720220  0.17284307  0.64786187     0.75600
O42         O  0.37830059  0.20031294  0.58142927    -0.58200
C43         C  0.33706696  0.11694483  0.55366433     0.75500
C44         C  0.30409635  0.21033149  0.55956585     0.77900
Cd45       Cd  0.33907231  0.17111056  0.58859277     1.37500
O46         O  0.32547543  0.14841062  0.63352109    -0.57100
O47         O  0.29704476  0.18749276  0.57403769    -0.55900
C48         C  0.39225788  0.17946528  0.59146091     0.77900
O49         O  0.32730150  0.21569466  0.55951770    -0.58200
O50         O  0.33359319  0.19673594  0.63445914    -0.56700
O51         O  0.34890111  0.14077651  0.54660008    -0.56700
O52         O  0.38131909  0.15591302  0.60085129    -0.55900
O53         O  0.13101034  0.38369192  0.13264219    -0.57100
C54         C  0.13470835  0.41156070  0.05192247     0.75600
O55         O  0.14179545  0.31428942  0.05575544    -0.58200
C56         C  0.13789830  0.36045382  0.14664362     0.75500
C57         C  0.07541498  0.34426732  0.08663529     0.77900
Cd58       Cd  0.12843255  0.35746620  0.08645179     1.37500
O59         O  0.14494382  0.40932749  0.07608263    -0.57100
O60         O  0.08432337  0.37109892  0.08638893    -0.55900
C61         C  0.16498635  0.31901212  0.05887236     0.77900
O62         O  0.09119009  0.32262312  0.08653855    -0.58200
O63         O  0.12228948  0.38854039  0.04375747    -0.56700
O64         O  0.14091898  0.33596015  0.13268263    -0.56700
O65         O  0.17088889  0.34086004  0.07514862    -0.55900
O66         O  0.31899815  0.15223625  0.87220607    -0.57100
C67         C  0.33577371  0.11192423  0.94762950     0.75600
O68         O  0.37269328  0.19710758  0.93606297    -0.58200
C69         C  0.32299668  0.17728623  0.85934219     0.75500
C70         C  0.29562829  0.20416943  0.94661134     0.77900
Cd71       Cd  0.33484893  0.17032852  0.91841203     1.37500
O72         O  0.33133375  0.11387432  0.92132130    -0.57100
O73         O  0.29187984  0.17865277  0.93463302    -0.55900
C74         C  0.38734417  0.18550921  0.91789759     0.77900
O75         O  0.31751009  0.21496003  0.94456841    -0.58200
O76         O  0.33980699  0.13701321  0.96031009    -0.56700
O77         O  0.33107312  0.19923421  0.87427518    -0.56700
O78         O  0.37766564  0.16718125  0.90029249    -0.55900
O79         O  0.32691389  0.87073380  0.12556797    -0.57100
C80         C  0.34048017  0.91174367  0.05483325     0.75600
O81         O  0.38350646  0.81828916  0.07739323    -0.58200
C82         C  0.33643403  0.85027976  0.14120163     0.75500
C83         C  0.31129896  0.81306326  0.05205586     0.77900
Cd84       Cd  0.34610857  0.85239762  0.08103406     1.37500
O85         O  0.35040657  0.90847502  0.07900107    -0.57100
O86         O  0.30511714  0.82820612  0.07384642    -0.55900
C87         C  0.39873438  0.83999124  0.07295541     0.77900
O88         O  0.33385720  0.81527618  0.04448588    -0.58200
O89         O  0.33198928  0.88766699  0.04333951    -0.56700
O90         O  0.35000657  0.83067902  0.12885801    -0.56700
O91         O  0.38939527  0.86652216  0.07199482    -0.55900
O92         O  0.14117007  0.64911983  0.86712378    -0.57100
C93         C  0.13832378  0.61204680  0.94535231     0.75600
O94         O  0.15578741  0.71257368  0.94263980    -0.58200
C95         C  0.14449417  0.67438348  0.85452599     0.75500
C96         C  0.08521736  0.68822541  0.91908484     0.77900
Cd97       Cd  0.13709782  0.66999552  0.91520004     1.37500
O98         O  0.14907022  0.61547579  0.92164767    -0.57100
O99         O  0.10202430  0.70259685  0.93257457    -0.55900
C100        C  0.17753789  0.70121955  0.94349060     0.77900
O101        O  0.09254759  0.66592121  0.90414534    -0.58200
O102        O  0.12712532  0.63538626  0.95483450    -0.56700
O103        O  0.14579624  0.69789026  0.87023800    -0.56700
O104        O  0.18061486  0.67638583  0.93015348    -0.55900
O105        O  0.64944709  0.87339477  0.38429695    -0.57100
C106        C  0.63768960  0.91282500  0.45996512     0.75600
O107        O  0.59570492  0.82097467  0.43478717    -0.58200
C108        C  0.64276507  0.85019212  0.37003151     0.75500
C109        C  0.66991392  0.81942765  0.46141583     0.77900
Cd110      Cd  0.63309041  0.85488431  0.43056830     1.37500
O111        O  0.63761096  0.91166117  0.43307505    -0.57100
O112        O  0.67577033  0.83563481  0.44018838    -0.55900
C113        C  0.58002548  0.84270504  0.43539425     0.77900
O114        O  0.64691957  0.81830215  0.46738536    -0.58200
O115        O  0.63625623  0.88736777  0.47260907    -0.56700
O116        O  0.63206831  0.82907148  0.38385662    -0.56700
O117        O  0.58894473  0.86944352  0.43351757    -0.55900
O118        O  0.81902986  0.61962383  0.59915018    -0.57100
C119        C  0.83170014  0.67104858  0.66670045     0.75600
O120        O  0.87302798  0.68913193  0.57638510    -0.58200
C121        C  0.83382875  0.61152537  0.57966878     0.75500
C122        C  0.80000909  0.71037502  0.57891669     0.77900
Cd123      Cd  0.83733755  0.67171103  0.60565062     1.37500
O124        O  0.84110182  0.64873117  0.65327864    -0.57100
O125        O  0.79546596  0.68333145  0.58712309    -0.55900
C126        C  0.88836091  0.69094555  0.59672945     0.77900
O127        O  0.82187511  0.71992231  0.58374481    -0.58200
O128        O  0.82450256  0.69355000  0.65182834    -0.56700
O129        O  0.85012288  0.63110296  0.57278375    -0.56700
O130        O  0.87963644  0.68527915  0.62110471    -0.55900
O131        O  0.83538031  0.41370524  0.44153550    -0.57100
C132        C  0.83961708  0.35654155  0.37443849     0.75600
O133        O  0.88529506  0.32776863  0.44444171    -0.58200
C134        C  0.83835365  0.41423328  0.46817276     0.75500
C135        C  0.80886434  0.32028733  0.45904816     0.77900
Cd136      Cd  0.84705948  0.35921469  0.43518830     1.37500
O137        O  0.83651661  0.38109512  0.38828761    -0.57100
O138        O  0.80393495  0.34149774  0.44161992    -0.55900
C139        C  0.90051754  0.34955491  0.44051512     0.77900
O140        O  0.83174476  0.31634454  0.46456546    -0.58200
O141        O  0.84606854  0.33330011  0.38875476    -0.56700
O142        O  0.84523218  0.38923828  0.47938124    -0.56700
O143        O  0.89083638  0.37518848  0.43446441    -0.55900
O144        O  0.64788118  0.15577449  0.63675590    -0.57100
C145        C  0.63627635  0.11521158  0.56311080     0.75600
O146        O  0.59389133  0.19821222  0.57269435    -0.58200
C147        C  0.64487568  0.18085302  0.64977111     0.75500
C148        C  0.66907349  0.20992119  0.55989584     0.77900
Cd149      Cd  0.63270989  0.17407372  0.59058261     1.37500
O150        O  0.64762682  0.12086700  0.58607098    -0.57100
O151        O  0.64828891  0.22145456  0.56682812    -0.55900
C152        C  0.57958484  0.18419748  0.58971432     0.77900
O153        O  0.67254343  0.18240274  0.56720292    -0.58200
O154        O  0.62270731  0.13656209  0.55341523    -0.56700
O155        O  0.63701560  0.20318457  0.63513672    -0.56700
O156        O  0.58995454  0.16598383  0.60697393    -0.55900
O157        O  0.81979774  0.36734773  0.14829243    -0.57100
C158        C  0.82767080  0.40928419  0.07330197     0.75600
O159        O  0.87318682  0.32145481  0.09061830    -0.58200
C160        C  0.82781639  0.34407811  0.16152206     0.75500
C161        C  0.79766952  0.31256060  0.07124710     0.77900
Cd162      Cd  0.83399546  0.35056018  0.10083647     1.37500
O163        O  0.81972831  0.40466497  0.09821114    -0.57100
O164        O  0.79169054  0.33070471  0.09099401    -0.55900
C165        C  0.88775515  0.34268224  0.09865599     0.77900
O166        O  0.82074141  0.31109584  0.06566968    -0.58200
O167        O  0.83812460  0.38676076  0.06128945    -0.56700
O168        O  0.83720084  0.32305606  0.14643459    -0.56700
O169        O  0.87734504  0.36708516  0.10693536    -0.55900
O170        O  0.63696703  0.15114692  0.87511965    -0.57100
C171        C  0.63045998  0.11507905  0.95386907     0.75600
O172        O  0.64526400  0.21797456  0.94702811    -0.58200
C173        C  0.63935602  0.17671067  0.86271009     0.75500
C174        C  0.57442287  0.18407464  0.92404845     0.77900
Cd175      Cd  0.62758771  0.17202564  0.92276433     1.37500
O176        O  0.63947754  0.11793199  0.92918295    -0.57100
O177        O  0.58391415  0.16089506  0.91213257    -0.55900
C178        C  0.66593614  0.20564851  0.95340850     0.77900
O179        O  0.58963918  0.20242524  0.93569993    -0.58200
O180        O  0.61942258  0.13844882  0.96373533    -0.56700
O181        O  0.63691201  0.20015408  0.87823597    -0.56700
O182        O  0.66880851  0.17823112  0.94532367    -0.55900
O183        O  0.63983402  0.88036968  0.14393729    -0.57100
C184        C  0.63747528  0.91752642  0.06558341     0.75600
O185        O  0.65447949  0.81526291  0.06954021    -0.58200
C186        C  0.64387069  0.85500285  0.15621479     0.75500
C187        C  0.58440593  0.84096082  0.09012060     0.77900
Cd188      Cd  0.63619962  0.85933615  0.09544345     1.37500
O189        O  0.64890136  0.91370730  0.08881382    -0.57100
O190        O  0.59202509  0.85895810  0.10928686    -0.55900
C191        C  0.67678074  0.82485158  0.07035173     0.77900
O192        O  0.60092112  0.83066315  0.07343088    -0.58200
O193        O  0.62541173  0.89464310  0.05648830    -0.56700
O194        O  0.64479280  0.83165276  0.14030878    -0.56700
O195        O  0.68013792  0.85023357  0.08270391    -0.55900
O196        O  0.84302073  0.64371711  0.89344893    -0.57100
C197        C  0.83965558  0.61130762  0.97195648     0.75600
O198        O  0.88418329  0.70345700  0.94023512    -0.58200
C199        C  0.83684686  0.66792913  0.88047730     0.75500
C200        C  0.81183433  0.70318180  0.97246781     0.77900
Cd201      Cd  0.84783153  0.66750978  0.94083555     1.37500
O202        O  0.83275041  0.61415147  0.94634924    -0.57100
O203        O  0.80605544  0.67871549  0.95972952    -0.55900
C204        C  0.90073401  0.68304522  0.94332763     0.77900
O205        O  0.83422797  0.71197308  0.96991238    -0.58200
O206        O  0.85132459  0.63392582  0.98230439    -0.56700
O207        O  0.83544753  0.69190991  0.89547713    -0.56700
O208        O  0.89282538  0.65581522  0.94542419    -0.55900
C209        C  0.69754244  0.80751855  0.05702971    -0.11200
C210        C  0.72274485  0.81110254  0.06546499     0.04300
C211        C  0.74149105  0.79409369  0.05203422    -0.11800
C212        C  0.73585335  0.77397690  0.02972237     0.19100
C213        C  0.71084204  0.77069210  0.02102202    -0.08800
C214        C  0.69198362  0.78705984  0.03485170    -0.01800
H215        H  0.76064792  0.79656097  0.05905614     0.05600
C216        C  0.75617090  0.75618351  0.01612146     0.21100
H217        H  0.67289469  0.78427789  0.02772206     0.10800
C218        C  0.75610240  0.72408212  0.01831872    -0.15100
C219        C  0.77440919  0.70639789  0.00489804     0.03800
C220        C  0.79325570  0.72088980  0.98882389    -0.10500
C221        C  0.79394991  0.75303611  0.98770841    -0.00500
C222        C  0.77562013  0.77069206  0.00111906    -0.05600
H223        H  0.74168988  0.71274166  0.03053780     0.06800
H224        H  0.80840214  0.76448809  0.97563304     0.10200
Br225      Br  0.70161065  0.74541538  0.98935407    -0.05300
Br226      Br  0.73306258  0.83787880  0.09564389    -0.02300
Br227      Br  0.77352956  0.66280177  0.01075272     0.00600
Br228      Br  0.77737759  0.81442443  0.99709115    -0.03800
C229        C  0.63255806  0.08623511  0.97056623    -0.11200
C230        C  0.64959628  0.06255833  0.96357439     0.04300
C231        C  0.65059233  0.03589316  0.98010611    -0.11800
C232        C  0.63499485  0.03215837  0.00366411     0.19100
C233        C  0.61857457  0.05593220  0.01123512    -0.08800
C234        C  0.61739063  0.08256228  0.99471780    -0.01800
H235        H  0.66348712  0.01778753  0.97440798     0.05600
C236        C  0.63564705  0.00291863  0.01955984     0.21100
H237        H  0.60443423  0.10043337  0.00081796     0.10800
C238        C  0.65614193  0.99615933  0.03698866    -0.15100
C239        C  0.65734585  0.96844697  0.05202927     0.03800
C240        C  0.63758508  0.94705097  0.04992345    -0.10500
C241        C  0.61738728  0.95373548  0.03187349    -0.00500
C242        C  0.61639647  0.98123108  0.01665558    -0.05600
H243        H  0.67134670  0.01239958  0.03868354     0.06800
H244        H  0.60223849  0.93750089  0.02954168     0.10200
Br245      Br  0.59775849  0.05317718  0.04425894    -0.05300
Br246      Br  0.67273841  0.06505785  0.93255953    -0.02300
Br247      Br  0.68726095  0.96042598  0.07322944     0.00600
Br248      Br  0.58888911  0.98770339  0.99122741    -0.03800
C249        C  0.83423323  0.58307090  0.98866107    -0.11200
C250        C  0.84139417  0.57962455  0.01748806     0.04300
C251        C  0.83731217  0.55174299  0.03143464    -0.11800
C252        C  0.82557124  0.52728654  0.01764462     0.19100
C253        C  0.81669051  0.53125704  0.98984292    -0.08800
C254        C  0.82127851  0.55879272  0.97547180    -0.01800
H255        H  0.84386304  0.54884963  0.05304330     0.05600
C256        C  0.82534636  0.49690660  0.03144971     0.21100
H257        H  0.81484170  0.56103090  0.95377498     0.10800
C258        C  0.80623613  0.48903125  0.05039338    -0.15100
C259        C  0.80637015  0.46053621  0.06425373     0.03800
C260        C  0.82591825  0.43947723  0.05906164    -0.10500
C261        C  0.84482893  0.44753724  0.03984322    -0.00500
C262        C  0.84477257  0.47600386  0.02631953    -0.05600
H263        H  0.79122459  0.50506783  0.05437260     0.06800
H264        H  0.86008910  0.43188327  0.03575537     0.10200
Br265      Br  0.79845103  0.49943995  0.97082393    -0.05300
Br266      Br  0.85669877  0.61149311  0.03964732    -0.02300
Br267      Br  0.77883704  0.45131001  0.08883889     0.00600
Br268      Br  0.87205068  0.48582264  0.00156662    -0.03800
C269        C  0.77875960  0.29504166  0.05473031    -0.11200
C270        C  0.75455041  0.28879203  0.06528706     0.04300
C271        C  0.73694750  0.27403508  0.04802478    -0.11800
C272        C  0.74285501  0.26524419  0.02025102     0.19100
C273        C  0.76696719  0.27099270  0.00976487    -0.08800
C274        C  0.78469156  0.28558284  0.02698500    -0.01800
H275        H  0.71849372  0.26934391  0.05632380     0.05600
C276        C  0.72358799  0.24992053  0.00270059     0.21100
H277        H  0.80302252  0.29019644  0.01833705     0.10800
C278        C  0.70761070  0.26766160  0.98577233    -0.15100
C279        C  0.68866645  0.25391478  0.96959171     0.03800
C280        C  0.68563649  0.22169272  0.96998745    -0.10500
C281        C  0.70190257  0.20405221  0.98687484    -0.00500
C282        C  0.72052353  0.21791979  0.00334158    -0.05600
H283        H  0.70984867  0.29230827  0.98523605     0.06800
H284        H  0.69984145  0.17939655  0.98773826     0.10200
Br285      Br  0.77634003  0.25969813  0.97192248    -0.05300
Br286      Br  0.74434210  0.29861480  0.10326490    -0.02300
Br287      Br  0.66834459  0.28041773  0.94668480     0.00600
Br288      Br  0.74107628  0.19242611  0.02692097    -0.03800
C289        C  0.64379907  0.17870165  0.83162905    -0.11200
C290        C  0.65358030  0.20521624  0.81831642     0.04300
C291        C  0.65586160  0.20622405  0.78871237    -0.11800
C292        C  0.64854670  0.18128440  0.77187850     0.19100
C293        C  0.63948064  0.15456653  0.78506984    -0.08800
C294        C  0.63721760  0.15344519  0.81460932    -0.01800
H295        H  0.66317416  0.22668496  0.77871164     0.05600
C296        C  0.64961174  0.18380580  0.74058246     0.21100
H297        H  0.62964191  0.13292130  0.82422245     0.10800
C298        C  0.66628507  0.16532106  0.72529138    -0.15100
C299        C  0.66592793  0.16493485  0.69558440     0.03800
C300        C  0.64871164  0.18348075  0.68072682    -0.10500
C301        C  0.63311007  0.20329886  0.69609885    -0.00500
C302        C  0.63331721  0.20342695  0.72574659    -0.05600
H303        H  0.67922104  0.15062544  0.73655116     0.06800
H304        H  0.61975906  0.21765462  0.68507140     0.10200
Br305      Br  0.62875685  0.11952861  0.76358097    -0.05300
Br306      Br  0.66496267  0.24050867  0.83897161    -0.02300
Br307      Br  0.68970004  0.13915172  0.67662420     0.00600
Br308      Br  0.60958722  0.22902398  0.74493307    -0.03800
C309        C  0.82682789  0.34225131  0.19293682    -0.11200
C310        C  0.84497089  0.32610662  0.20885590     0.04300
C311        C  0.84479643  0.32774205  0.23850867    -0.11800
C312        C  0.82667324  0.34489261  0.25291204     0.19100
C313        C  0.80804411  0.36005981  0.23721046    -0.08800
C314        C  0.80833808  0.35885088  0.20751108    -0.01800
H315        H  0.85930435  0.31618900  0.25042597     0.05600
C316        C  0.82851947  0.34803632  0.28415344     0.21100
H317        H  0.79412476  0.37110891  0.19576505     0.10800
C318        C  0.83452396  0.37669279  0.29586684    -0.15100
C319        C  0.83796861  0.38024220  0.32515244     0.03800
C320        C  0.83563493  0.35458501  0.34333444    -0.10500
C321        C  0.82951964  0.32595639  0.33145481    -0.00500
C322        C  0.82583360  0.32258746  0.30223614    -0.05600
H323        H  0.83697964  0.39630501  0.28205330     0.06800
H324        H  0.82735089  0.30606083  0.34498873     0.10200
Br325      Br  0.78162764  0.38221851  0.25547490    -0.05300
Br326      Br  0.87176360  0.30341263  0.19177405    -0.02300
Br327      Br  0.84726618  0.42032317  0.33839192     0.00600
Br328      Br  0.81641070  0.28297625  0.28809437    -0.03800
C329        C  0.78867821  0.30203466  0.47254232    -0.11200
C330        C  0.79298330  0.28180374  0.49554174     0.04300
C331        C  0.77283815  0.26736110  0.50881886    -0.11800
C332        C  0.74831474  0.27183647  0.49930952     0.19100
C333        C  0.74395565  0.29143700  0.47611561    -0.08800
C334        C  0.76398898  0.30632068  0.46303519    -0.01800
H335        H  0.77632068  0.25252756  0.52681038     0.05600
C336        C  0.72762960  0.25601643  0.51410202     0.21100
H337        H  0.76012711  0.32146773  0.44540070     0.10800
C338        C  0.70904131  0.27339155  0.52757368    -0.15100
C339        C  0.68946129  0.25918449  0.54220681     0.03800
C340        C  0.68852976  0.22682374  0.54392924    -0.10500
C341        C  0.70730303  0.20960361  0.53047706    -0.00500
C342        C  0.72663673  0.22381521  0.51567377    -0.05600
H343        H  0.70991219  0.29818486  0.52690350     0.06800
H344        H  0.70694899  0.18479116  0.53130589     0.10200
Br345      Br  0.71108501  0.29820424  0.46108178    -0.05300
Br346      Br  0.82547840  0.27283411  0.51066627    -0.02300
Br347      Br  0.66551679  0.28557029  0.56013086     0.00600
Br348      Br  0.75083386  0.19799067  0.49744098    -0.03800
C349        C  0.83012527  0.67097722  0.69810386    -0.11200
C350        C  0.81134849  0.68695701  0.71309526     0.04300
C351        C  0.81119638  0.68658268  0.74284371    -0.11800
C352        C  0.82969414  0.67086632  0.75809569     0.19100
C353        C  0.84847817  0.65510465  0.74320596    -0.08800
C354        C  0.84841028  0.65495434  0.71353533    -0.01800
H355        H  0.79660341  0.69861924  0.75415620     0.05600
C356        C  0.82929378  0.67102641  0.78951560     0.21100
H357        H  0.86316225  0.64292576  0.70248626     0.10800
C358        C  0.82398444  0.64376418  0.80410237    -0.15100
C359        C  0.82551792  0.64233317  0.83374007     0.03800
C360        C  0.83252615  0.66866134  0.84937040    -0.10500
C361        C  0.83668537  0.69628575  0.83468899    -0.00500
C362        C  0.83521482  0.69759548  0.80506234    -0.05600
H363        H  0.81899176  0.62335312  0.79228597     0.06800
H364        H  0.84201859  0.71676966  0.84620082     0.10200
Br365      Br  0.87541406  0.63490496  0.76252508    -0.05300
Br366      Br  0.78482539  0.70858419  0.69437137    -0.02300
Br367      Br  0.81706204  0.60399295  0.85134586     0.00600
Br368      Br  0.84301545  0.73567284  0.78668109    -0.03800
C369        C  0.83265220  0.58113342  0.56536985    -0.11200
C370        C  0.81234917  0.56050579  0.56829198     0.04300
C371        C  0.81237563  0.53268991  0.55329676    -0.11800
C372        C  0.83227696  0.52491913  0.53542814     0.19100
C373        C  0.85247367  0.54517407  0.53263025    -0.08800
C374        C  0.85256283  0.57286390  0.54747315    -0.01800
H375        H  0.79674151  0.51713102  0.55542012     0.05600
C376        C  0.83177333  0.49584440  0.51937694     0.21100
H377        H  0.86837249  0.58804508  0.54483482     0.10800
C378        C  0.82140111  0.49543048  0.49209638    -0.15100
C379        C  0.82286432  0.46915747  0.47505556     0.03800
C380        C  0.83480604  0.44242642  0.48550391    -0.10500
C381        C  0.84447408  0.44286090  0.51331056    -0.00500
C382        C  0.84322311  0.46928341  0.53006206    -0.05600
H383        H  0.81265175  0.51593183  0.48377535     0.06800
H384        H  0.85375338  0.42284571  0.52187186     0.10200
Br385      Br  0.88029753  0.53600746  0.50847939    -0.05300
Br386      Br  0.78362900  0.56882178  0.59139472    -0.02300
Br387      Br  0.80813218  0.47191861  0.43797006     0.00600
Br388      Br  0.85840592  0.46860327  0.56693904    -0.03800
C389        C  0.64622531  0.85291955  0.18755311    -0.11200
C390        C  0.65955798  0.82916518  0.20134961     0.04300
C391        C  0.66005213  0.82777777  0.23108539    -0.11800
C392        C  0.64722926  0.84946824  0.24746338     0.19100
C393        C  0.63397499  0.87307247  0.23383081    -0.08800
C394        C  0.63380903  0.87487505  0.20421117    -0.01800
H395        H  0.67036434  0.80962392  0.24149521     0.05600
C396        C  0.64764966  0.84726537  0.27877460     0.21100
H397        H  0.62324080  0.89304929  0.19415978     0.10800
C398        C  0.66464871  0.86512968  0.29419258    -0.15100
C399        C  0.66421465  0.86550229  0.32392931     0.03800
C400        C  0.64609257  0.84818290  0.33875742    -0.10500
C401        C  0.62985417  0.82923380  0.32310472    -0.00500
C402        C  0.63059077  0.82861015  0.29341638    -0.05600
H403        H  0.67819037  0.87901397  0.28300843     0.06800
H404        H  0.61601284  0.81545132  0.33392312     0.10200
Br405      Br  0.61490707  0.90254554  0.25486734    -0.05300
Br406      Br  0.67815056  0.79853821  0.18113599    -0.02300
Br407      Br  0.68964690  0.88893249  0.34273861     0.00600
Br408      Br  0.60745418  0.80271444  0.27361194    -0.03800
C409        C  0.63934402  0.94228892  0.47568257    -0.11200
C410        C  0.63243780  0.94494702  0.50463119     0.04300
C411        C  0.63368920  0.97342515  0.51816995    -0.11800
C412        C  0.64165656  0.99955804  0.50359354     0.19100
C413        C  0.64907487  0.99705447  0.47509202    -0.08800
C414        C  0.64776462  0.96864127  0.46133107    -0.01800
H415        H  0.62784522  0.97537545  0.54012136     0.05600
C416        C  0.64070556  0.02943873  0.51820588     0.21100
H417        H  0.65338951  0.96719534  0.43929390     0.10800
C418        C  0.66007110  0.03786994  0.53658878    -0.15100
C419        C  0.65912658  0.06556873  0.55161494     0.03800
C420        C  0.63837529  0.08536423  0.54825064    -0.10500
C421        C  0.61904965  0.07663736  0.52973186    -0.00500
C422        C  0.61999711  0.04887338  0.51499450    -0.05600
H423        H  0.67596858  0.02282603  0.53922812     0.06800
H424        H  0.60289685  0.09124754  0.52698414     0.10200
Br425      Br  0.66106041  0.03188708  0.45430457    -0.05300
Br426      Br  0.61978880  0.91151588  0.52697363    -0.02300
Br427      Br  0.68728098  0.07514870  0.57527309     0.00600
Br428      Br  0.59222808  0.03786801  0.49136171    -0.03800
C429        C  0.68883224  0.80386775  0.47928785    -0.11200
C430        C  0.71152010  0.79251996  0.46822915     0.04300
C431        C  0.72893384  0.77875935  0.48637260    -0.11800
C432        C  0.72441403  0.77640836  0.51558863     0.19100
C433        C  0.70219314  0.78856512  0.52681379    -0.08800
C434        C  0.68447838  0.80165839  0.50864489    -0.01800
H435        H  0.74603933  0.76954070  0.47759968     0.05600
C436        C  0.74301459  0.76063205  0.53367128     0.21100
H437        H  0.66750617  0.81096412  0.51765167     0.14000
C438        C  0.76647778  0.77409007  0.53792610    -0.15100
C439        C  0.78526527  0.75874127  0.55302209     0.03800
C440        C  0.78067501  0.72904457  0.56414131    -0.10500
C441        C  0.75690247  0.71597603  0.56006414    -0.00500
C442        C  0.73827796  0.73135593  0.54493993    -0.05600
H443        H  0.77028658  0.79650768  0.52909499     0.06800
H444        H  0.75281950  0.69330494  0.56813632     0.10200
Br445      Br  0.69579338  0.78914642  0.56687182    -0.05300
Br446      Br  0.71950379  0.79379425  0.42855915    -0.02300
Br447      Br  0.81660242  0.77979504  0.55669553     0.00600
Br448      Br  0.70717744  0.71053218  0.53876860    -0.03800
C449        C  0.05835486  0.69603378  0.92159653    -0.11200
C450        C  0.04095421  0.68878053  0.90001678     0.04300
C451        C  0.01537089  0.69245261  0.90497093    -0.11800
C452        C  0.00661748  0.70340732  0.93108883     0.19100
C453        C  0.02392217  0.71252451  0.95190506    -0.08800
C454        C  0.04955431  0.70898763  0.94701638    -0.01800
H455        H  0.00217877  0.68568147  0.88872793     0.05600
C456        C  0.97956061  0.70140076  0.93721867     0.21100
H457        H  0.06255073  0.71508650  0.96368411     0.10800
C458        C  0.97097854  0.67702478  0.95393835    -0.15100
C459        C  0.94543383  0.67158643  0.95739153     0.03800
C460        C  0.92781922  0.69042311  0.94341921    -0.10500
C461        C  0.93649422  0.71600304  0.92806006    -0.00500
C462        C  0.96214510  0.72159130  0.92495793    -0.05600
H463        H  0.98430014  0.66173553  0.96395115     0.06800
H464        H  0.92333501  0.73118058  0.91769064     0.10200
Br465      Br  0.01326340  0.72910713  0.98755476    -0.05300
Br466      Br  0.05074074  0.67406149  0.86323423    -0.02300
Br467      Br  0.93596629  0.63883465  0.98240212     0.00600
Br468      Br  0.97270914  0.75699761  0.90402236    -0.03800
C469        C  0.42604311  0.83496185  0.07034233    -0.11200
C470        C  0.44212455  0.85741495  0.05862756     0.04300
C471        C  0.46797790  0.85344497  0.06000127    -0.11800
C472        C  0.47841036  0.82739109  0.07269011     0.19100
C473        C  0.46254536  0.80427793  0.08309196    -0.08800
C474        C  0.43660151  0.80806824  0.08170117    -0.01800
H475        H  0.48008536  0.87126784  0.05184072     0.05600
C476        C  0.50573620  0.82650025  0.07722126     0.21100
H477        H  0.42471665  0.79043591  0.09056447     0.10800
C478        C  0.51500598  0.83119320  0.10468834    -0.15100
C479        C  0.54059044  0.83476955  0.10958946     0.03800
C480        C  0.55753809  0.83359013  0.08662652    -0.10500
C481        C  0.54825056  0.82736445  0.05928609    -0.00500
C482        C  0.52257573  0.82414719  0.05443821    -0.05600
H483        H  0.50214456  0.83302659  0.12234506     0.06800
H484        H  0.56088303  0.82628122  0.04139137     0.10200
Br485      Br  0.47556900  0.76749268  0.09979140    -0.05300
Br486      Br  0.43045535  0.89409256  0.04029849    -0.02300
Br487      Br  0.55095406  0.84086304  0.14820951     0.00600
Br488      Br  0.51121845  0.81726510  0.01634703    -0.03800
C489        C  0.29289879  0.79426615  0.03630967    -0.11200
C490        C  0.29618766  0.78627395  0.00742992     0.04300
C491        C  0.27754112  0.76998815  0.99317393    -0.11800
C492        C  0.25545441  0.76172561  0.00696742     0.19100
C493        C  0.25222416  0.76905315  0.03575682    -0.08800
C494        C  0.27083734  0.78524282  0.05017590    -0.01800
H495        H  0.27996310  0.76446024  0.97091158     0.05600
C496        C  0.23563258  0.74642436  0.99060600     0.21100
H497        H  0.26792886  0.79098129  0.07230303     0.10800
C498        C  0.23758320  0.71502979  0.98495989    -0.15100
C499        C  0.21901365  0.69974826  0.96961319     0.03800
C500        C  0.19808435  0.71623134  0.95931405    -0.10500
C501        C  0.19641071  0.74783139  0.96495245    -0.00500
C502        C  0.21499361  0.76294248  0.98037240    -0.05600
H503        H  0.25346029  0.70228256  0.99293148     0.06800
H504        H  0.18062198  0.76093414  0.95723423     0.10200
Br505      Br  0.22258692  0.75756897  0.05597948    -0.05300
Br506      Br  0.32452710  0.79864062  0.98527381    -0.02300
Br507      Br  0.22293394  0.65618368  0.96534470     0.00600
Br508      Br  0.21166811  0.80622476  0.98676695    -0.03800
C509        C  0.41449353  0.19175271  0.91810935    -0.11200
C510        C  0.42913940  0.19054672  0.89317587     0.04300
C511        C  0.45514369  0.19271010  0.89506789    -0.11800
C512        C  0.46695903  0.19592088  0.92143899     0.19100
C513        C  0.45240159  0.19848257  0.94611766    -0.08800
C514        C  0.42638511  0.19670830  0.94428877    -0.01800
H515        H  0.46628707  0.19089243  0.87595740     0.05600
C516        C  0.49440561  0.19332849  0.92301167     0.21100
H517        H  0.41550259  0.19761731  0.96363947     0.10800
C518        C  0.50925046  0.21972083  0.92519843    -0.15100
C519        C  0.53538277  0.21751199  0.92603047     0.03800
C520        C  0.54696070  0.18839635  0.92448347    -0.10500
C521        C  0.53183668  0.16212142  0.92252719    -0.00500
C522        C  0.50586997  0.16438716  0.92194130    -0.05600
H523        H  0.50048499  0.24206471  0.92595182     0.06800
H524        H  0.54023767  0.13955683  0.92160428     0.10200
Br525      Br  0.46737250  0.20199747  0.98293110    -0.05300
Br526      Br  0.41496639  0.18628151  0.85594145    -0.02300
Br527      Br  0.55398176  0.25508829  0.92761992     0.00600
Br528      Br  0.48670372  0.12723363  0.92007975    -0.03800
C529        C  0.33585424  0.08226264  0.96312246    -0.11200
C530        C  0.33938683  0.05372542  0.94938063     0.04300
C531        C  0.33928302  0.02657197  0.96523714    -0.11800
C532        C  0.33539290  0.02707105  0.99463508     0.19100
C533        C  0.33169093  0.05531861  0.00836803    -0.08800
C534        C  0.33212338  0.08255773  0.99268892    -0.01800
H535        H  0.34238689  0.00490541  0.95460827     0.05600
C536        C  0.33598490  0.99793269  0.01068549     0.21100
H537        H  0.32909454  0.10403720  0.00366805     0.10800
C538        C  0.35592507  0.99225350  0.02921241    -0.15100
C539        C  0.35758003  0.96461176  0.04415678     0.03800
C540        C  0.33902886  0.94188448  0.04050420    -0.10500
C541        C  0.31909024  0.94766937  0.02185727    -0.00500
C542        C  0.31738716  0.97547566  0.00715199    -0.05600
H543        H  0.37045555  0.00927887  0.03173725     0.06800
H544        H  0.30466126  0.93059638  0.01885396     0.10200
Br545      Br  0.32493070  0.05762967  0.04830119    -0.05300
Br546      Br  0.34540092  0.04983385  0.90937673    -0.02300
Br547      Br  0.38656207  0.95880453  0.06755484     0.00600
Br548      Br  0.28899531  0.98217710  0.98310539    -0.03800
C549        C  0.04798352  0.33940575  0.08663400    -0.11200
C550        C  0.03633784  0.31306284  0.09814502     0.04300
C551        C  0.01017465  0.31132251  0.09920072    -0.11800
C552        C  0.99531673  0.33530617  0.08871546     0.19100
C553        C  0.00691253  0.36097494  0.07637455    -0.08800
C554        C  0.03288920  0.36292903  0.07559375    -0.01800
H555        H  0.00140168  0.29161551  0.10892286     0.05600
C556        C  0.96789943  0.33474151  0.09273197     0.21100
H557        H  0.04132959  0.38313419  0.06629345     0.10800
C558        C  0.95721184  0.35595934  0.11141617    -0.15100
C559        C  0.93133892  0.35859966  0.11411210     0.03800
C560        C  0.91539435  0.33942326  0.09794928    -0.10500
C561        C  0.92625485  0.31718047  0.08014033    -0.00500
C562        C  0.95225821  0.31482095  0.07737414    -0.05600
H563        H  0.96917905  0.37107746  0.12361667     0.06800
H564        H  0.91449565  0.30215061  0.06762956     0.10200
Br565      Br  0.98799945  0.39395974  0.06003094    -0.05300
Br566      Br  0.05477747  0.27973913  0.11453907    -0.02300
Br567      Br  0.91955391  0.38866733  0.14073041     0.00600
Br568      Br  0.96556200  0.28533463  0.05125496    -0.03800
C569        C  0.13703789  0.43966783  0.03439497    -0.11200
C570        C  0.11878709  0.44802341  0.01408681     0.04300
C571        C  0.12118468  0.47554300  0.99910587    -0.11800
C572        C  0.14148254  0.49514416  0.00375926     0.19100
C573        C  0.15986396  0.48680478  0.02365468    -0.08800
C574        C  0.15754352  0.45928038  0.03876046    -0.01800
H575        H  0.10678604  0.48208516  0.98412559     0.05600
C576        C  0.14175571  0.52526830  0.98933144     0.21100
H577        H  0.17171832  0.45337302  0.05421841     0.10800
C578        C  0.12435396  0.54743542  0.99768297    -0.15100
C579        C  0.12278859  0.57573840  0.98383635     0.03800
C580        C  0.13910457  0.58243319  0.96101248    -0.10500
C581        C  0.15654724  0.55998763  0.95272048    -0.00500
C582        C  0.15787804  0.53159193  0.96655093    -0.05600
H583        H  0.11160214  0.54245067  0.01493188     0.06800
H584        H  0.16916609  0.56440433  0.93523683     0.10200
Br585      Br  0.18772215  0.51298164  0.03190250    -0.05300
Br586      Br  0.08908782  0.42447872  0.00708242    -0.02300
Br587      Br  0.09692701  0.60297458  0.99656384     0.00600
Br588      Br  0.18120681  0.50168558  0.95287459    -0.03800
C589        C  0.27563268  0.22043072  0.96231212    -0.11200
C590        C  0.25595857  0.20452677  0.97588483     0.04300
C591        C  0.23780898  0.22080357  0.99099299    -0.11800
C592        C  0.23871150  0.25285648  0.99298911     0.19100
C593        C  0.25834474  0.26876979  0.97961838    -0.08800
C594        C  0.27656078  0.25255947  0.96450011    -0.01800
H595        H  0.22310690  0.20832054  0.00172181     0.05600
C596        C  0.21959531  0.26907212  0.01008130     0.21100
H597        H  0.29146221  0.26518583  0.95427828     0.10800
C598        C  0.22688494  0.28442817  0.03487497    -0.15100
C599        C  0.20950450  0.30026364  0.05149466     0.03800
C600        C  0.18403544  0.30077019  0.04342216    -0.10500
C601        C  0.17672651  0.28452095  0.01901491    -0.00500
C602        C  0.19419522  0.26886154  0.00239111    -0.05600
H603        H  0.24630242  0.28409453  0.04132765     0.06800
H604        H  0.15738586  0.28462268  0.01232433     0.10200
Br605      Br  0.26081276  0.31266796  0.98089317    -0.05300
Br606      Br  0.25364079  0.16055751  0.97665992    -0.02300
Br607      Br  0.22203195  0.31970294  0.08522639     0.00600
Br608      Br  0.18253747  0.24877849  0.96866314    -0.03800
C609        C  0.41982587  0.18237841  0.59199072    -0.11200
C610        C  0.43568003  0.15655976  0.59494218     0.04300
C611        C  0.46153127  0.16045491  0.59483674    -0.11800
C612        C  0.47219888  0.18957329  0.59194262     0.19100
C613        C  0.45664597  0.21532180  0.58896255    -0.08800
C614        C  0.43068391  0.21160141  0.58895039    -0.01800
H615        H  0.47348823  0.14054681  0.59688476     0.05600
C616        C  0.49966745  0.19205834  0.59197652     0.21100
H617        H  0.41897071  0.23169444  0.58675811     0.10800
C618        C  0.51230687  0.19652784  0.56627510    -0.15100
C619        C  0.53838867  0.19479765  0.56502002     0.03800
C620        C  0.55220576  0.18858164  0.58992350    -0.10500
C621        C  0.53941047  0.18487199  0.61572137    -0.00500
C622        C  0.51340628  0.18659452  0.61688506    -0.05600
H623        H  0.50177100  0.20014320  0.54693807     0.06800
H624        H  0.54966251  0.18026367  0.63507010     0.10200
Br625      Br  0.47007654  0.25592478  0.58564041    -0.05300
Br626      Br  0.42390711  0.11501872  0.59793745    -0.02300
Br627      Br  0.55363173  0.19802852  0.52829634     0.00600
Br628      Br  0.49731256  0.18090281  0.65287301    -0.03800
C629        C  0.31895998  0.18034289  0.82842290    -0.11200
C630        C  0.33298599  0.20103900  0.81168558     0.04300
C631        C  0.33037487  0.20079734  0.78222000    -0.11800
C632        C  0.31366389  0.18075167  0.76886889     0.19100
C633        C  0.29877722  0.16118480  0.78550216    -0.08800
C634        C  0.30168205  0.16087353  0.81499898    -0.01800
H635        H  0.34214795  0.21560078  0.76952953     0.05600
C636        C  0.31437796  0.17823043  0.73763537     0.21100
H637        H  0.29049546  0.14519374  0.82746154     0.10800
C638        C  0.32281897  0.15073906  0.72558863    -0.15100
C639        C  0.32664141  0.14818779  0.69638922     0.03800
C640        C  0.32214954  0.17370698  0.67863203    -0.10500
C641        C  0.31346481  0.20116118  0.69073564    -0.00500
C642        C  0.30943017  0.20352149  0.71995091    -0.05600
H643        H  0.32726533  0.13143275  0.73914182     0.06800
H644        H  0.30977900  0.22089313  0.67742489     0.10200
Br645      Br  0.27414338  0.13476319  0.76884353    -0.05300
Br646      Br  0.35752154  0.22863065  0.82693864    -0.02300
Br647      Br  0.34003251  0.11003912  0.68283463     0.00600
Br648      Br  0.29685238  0.24154211  0.73465242    -0.03800
C649        C  0.06016027  0.34692135  0.42923637    -0.11200
C650        C  0.04347039  0.34970895  0.40611887     0.04300
C651        C  0.01780721  0.34684254  0.41054514    -0.11800
C652        C  0.00819528  0.34148982  0.43770559     0.19100
C653        C  0.02470216  0.33747631  0.46062253    -0.08800
C654        C  0.05051082  0.33990605  0.45623178    -0.01800
H655        H  0.00514740  0.34974810  0.39278516     0.05600
C656        C  0.98088430  0.34308603  0.44170604     0.21100
H657        H  0.06298135  0.33768938  0.47422844     0.10800
C658        C  0.96668074  0.31613985  0.44308799    -0.15100
C659        C  0.94049253  0.31731656  0.44356644     0.03800
C660        C  0.92812989  0.34607213  0.44249681    -0.10500
C661        C  0.94272293  0.37292785  0.44214024    -0.00500
C662        C  0.96873399  0.37160486  0.44171842    -0.05600
H663        H  0.97600066  0.29410521  0.44299449     0.06800
H664        H  0.93391023  0.39525884  0.44171184     0.10200
Br665      Br  0.01264533  0.33075543  0.49841053    -0.05300
Br666      Br  0.05428379  0.35709521  0.36787152    -0.02300
Br667      Br  0.92326423  0.27871603  0.44431398     0.00600
Br668      Br  0.98703671  0.40944785  0.44056574    -0.03800
C669        C  0.14246413  0.36165606  0.17756348    -0.11200
C670        C  0.12878918  0.38119365  0.19573021     0.04300
C671        C  0.13344267  0.38080605  0.22493948    -0.11800
C672        C  0.15161506  0.36135510  0.23653668     0.19100
C673        C  0.16548662  0.34219882  0.21847187    -0.08800
C674        C  0.16074934  0.34231904  0.18928529    -0.01800
H675        H  0.12240460  0.39521319  0.23880456     0.05600
C676        C  0.15424446  0.35972038  0.26771514     0.21100
H677        H  0.17155288  0.32737363  0.17566573     0.10800
C678        C  0.14496949  0.33395326  0.28194187    -0.15100
C679        C  0.14425118  0.33283838  0.31160050     0.03800
C680        C  0.15308987  0.35809201  0.32772706    -0.10500
C681        C  0.16341305  0.38331715  0.31317754    -0.00500
C682        C  0.16390991  0.38433492  0.28350859    -0.05600
H683        H  0.13743630  0.31497059  0.26982052     0.06800
H684        H  0.17050839  0.40284839  0.32485502     0.10200
Br685      Br  0.19140294  0.31603187  0.23267920    -0.05300
Br686      Br  0.10225238  0.40717288  0.18254215    -0.02300
Br687      Br  0.12979999  0.29654755  0.32787753     0.00600
Br688      Br  0.17763552  0.41995072  0.26540094    -0.03800
C689        C  0.28601966  0.22934340  0.54352641    -0.11200
C690        C  0.29296084  0.24625276  0.51915933     0.04300
C691        C  0.27497334  0.26299379  0.50424110    -0.11800
C692        C  0.25000913  0.26313828  0.51293201     0.19100
C693        C  0.24294801  0.24634988  0.53708639    -0.08800
C694        C  0.26088271  0.22962929  0.55215751    -0.01800
H695        H  0.28039606  0.27562415  0.48545509     0.05600
C696        C  0.23161963  0.28056400  0.49608012     0.21100
H697        H  0.25512855  0.21684328  0.57070452     0.10800
C698        C  0.21631544  0.26495405  0.47674647    -0.15100
C699        C  0.19917768  0.28091955  0.45985633     0.03800
C700        C  0.19704214  0.31307764  0.46241851    -0.10500
C701        C  0.21285390  0.32866912  0.48136986    -0.00500
C702        C  0.23000653  0.31265899  0.49816095    -0.05600
H703        H  0.21795584  0.24033433  0.47455517     0.06800
H704        H  0.21148544  0.35332146  0.48361491     0.10200
Br705      Br  0.20911804  0.24594047  0.55036051    -0.05300
Br706      Br  0.32608931  0.24592636  0.50365733    -0.02300
Br707      Br  0.18057042  0.25785376  0.43233890     0.00600
Br708      Br  0.25047724  0.33533228  0.52418459    -0.03800
C709        C  0.04733625  0.69879902  0.57622389    -0.11200
C710        C  0.03500756  0.72698737  0.58138473     0.04300
C711        C  0.00888963  0.72776899  0.58336848    -0.11800
C712        C  0.99473294  0.70096591  0.58019297     0.19100
C713        C  0.00682103  0.67321788  0.57385287    -0.08800
C714        C  0.03281897  0.67227395  0.57206264    -0.01800
H715        H  0.99961769  0.74920606  0.58825315     0.05600
C716        C  0.96754371  0.70168295  0.58524566     0.21100
H717        H  0.04173819  0.65047214  0.56774295     0.10800
C718        C  0.95134918  0.71085987  0.56348790    -0.15100
C719        C  0.92539840  0.70872602  0.56683387     0.03800
C720        C  0.91533013  0.69739851  0.59258152    -0.10500
C721        C  0.93179924  0.68968515  0.61472277    -0.00500
C722        C  0.95759932  0.69150073  0.61116417    -0.05600
H723        H  0.95895584  0.71890621  0.54354377     0.06800
H724        H  0.92467256  0.68097042  0.63465419     0.10200
Br725      Br  0.98849047  0.63590111  0.56804363    -0.05300
Br726      Br  0.05243376  0.76479575  0.58792943    -0.02300
Br727      Br  0.90516101  0.72161212  0.53536093     0.00600
Br728      Br  0.97857776  0.67850723  0.64192987    -0.03800
C729        C  0.14177758  0.69038592  0.67289176    -0.11200
C730        C  0.12559476  0.70667163  0.69124704     0.04300
C731        C  0.12889044  0.70480392  0.72067240    -0.11800
C732        C  0.14799286  0.68692950  0.73241528     0.19100
C733        C  0.16440516  0.67116633  0.71432718    -0.08800
C734        C  0.16122952  0.67295645  0.68487009    -0.01800
H735        H  0.11598608  0.71662109  0.73455337     0.05600
C736        C  0.14893577  0.68295965  0.76355136     0.21100
H737        H  0.17388624  0.66036371  0.67129713     0.10800
C738        C  0.13607548  0.65828701  0.77567186    -0.15100
C739        C  0.13458147  0.65489557  0.80513192     0.03800
C740        C  0.14638897  0.67643924  0.82316665    -0.10500
C741        C  0.15944912  0.70108024  0.81084758    -0.00500
C742        C  0.16079802  0.70440197  0.78129452    -0.05600
H743        H  0.12652969  0.64203395  0.76208323     0.06800
H744        H  0.16857288  0.71788083  0.82421898     0.10200
Br745      Br  0.19108789  0.64653700  0.72903396    -0.05300
Br746      Br  0.09734122  0.72980621  0.67810699    -0.02300
Br747      Br  0.11420878  0.62185010  0.81895963     0.00600
Br748      Br  0.17880209  0.73857838  0.76593322    -0.03800
C749        C  0.13440886  0.59890104  0.53580298    -0.11200
C750        C  0.12714083  0.57068381  0.54805055     0.04300
C751        C  0.12899844  0.54355418  0.53230510    -0.11800
C752        C  0.13885204  0.54353701  0.50471283     0.19100
C753        C  0.14640461  0.57160332  0.49259834    -0.08800
C754        C  0.14383801  0.59891883  0.50796731    -0.01800
H755        H  0.12275720  0.52225315  0.54170075     0.05600
C756        C  0.14064233  0.51407034  0.48893826     0.21100
H757        H  0.14981617  0.62019963  0.49831729     0.10800
C758        C  0.12777917  0.51061539  0.46315416    -0.15100
C759        C  0.12832171  0.48284070  0.44821256     0.03800
C760        C  0.14133036  0.45742708  0.45952067    -0.10500
C761        C  0.15416897  0.46092796  0.48532356    -0.00500
C762        C  0.15420219  0.48895498  0.49979973    -0.05600
H763        H  0.11701078  0.52954387  0.45475829     0.06800
H764        H  0.16452708  0.44184457  0.49414075     0.10200
Br765      Br  0.16163876  0.57377359  0.45580568    -0.05300
Br766      Br  0.11373534  0.56737072  0.58571291    -0.02300
Br767      Br  0.10973056  0.48083701  0.41339661     0.00600
Br768      Br  0.17393555  0.49199733  0.53371297    -0.03800
C769        C  0.42153490  0.83479173  0.42278170    -0.11200
C770        C  0.43808151  0.83629216  0.39949101     0.04300
C771        C  0.46367711  0.83211912  0.40376470    -0.11800
C772        C  0.47327235  0.82652800  0.43093955     0.19100
C773        C  0.45674593  0.82353428  0.45395663    -0.08800
C774        C  0.43107112  0.82739923  0.44972483    -0.01800
H775        H  0.47630272  0.83441203  0.38593011     0.05600
C776        C  0.50057385  0.82813953  0.43517412     0.21100
H777        H  0.41866068  0.82595966  0.46781331     0.10800
C778        C  0.51053523  0.85464611  0.44754381    -0.15100
C779        C  0.53629707  0.85939836  0.44873405     0.03800
C780        C  0.55274578  0.83725288  0.43728560    -0.10500
C781        C  0.54269540  0.80995912  0.42613557    -0.00500
C782        C  0.51681397  0.80541039  0.42482819    -0.05600
H783        H  0.49812231  0.87215990  0.45564756     0.06800
H784        H  0.55493164  0.79258478  0.41748284     0.10200
Br785      Br  0.46856753  0.81508623  0.49157955    -0.05300
Br786      Br  0.42702809  0.84369751  0.36130575    -0.02300
Br787      Br  0.54747117  0.89645070  0.46678696     0.00600
Br788      Br  0.50438302  0.76811497  0.40850462    -0.03800
C789        C  0.33209009  0.85422448  0.32324763    -0.11200
C790        C  0.32379176  0.82749586  0.30898452     0.04300
C791        C  0.32260413  0.82710498  0.27927595    -0.11800
C792        C  0.32945769  0.85290087  0.26335922     0.19100
C793        C  0.33713513  0.87968561  0.27740630    -0.08800
C794        C  0.33835424  0.88021581  0.30701469    -0.01800
H795        H  0.31665071  0.80643185  0.26848245     0.05600
C796        C  0.33032317  0.85083145  0.23212229     0.21100
H797        H  0.34481738  0.90093549  0.31731243     0.10800
C798        C  0.31090010  0.86317174  0.21575332    -0.15100
C799        C  0.31210171  0.86284662  0.18603179     0.03800
C800        C  0.33305768  0.84980516  0.17235639    -0.10500
C801        C  0.35210149  0.83683674  0.18897956    -0.00500
C802        C  0.35097434  0.83753040  0.21854329    -0.05600
H803        H  0.29490176  0.87334422  0.22615691     0.06800
H804        H  0.36841886  0.82696163  0.17896893     0.10200
Br805      Br  0.34719957  0.91563870  0.25690422    -0.05300
Br806      Br  0.31328952  0.79094909  0.32833080    -0.02300
Br807      Br  0.28425353  0.87963160  0.16557502     0.00600
Br808      Br  0.37872949  0.82150580  0.23958016    -0.03800
C809        C  0.34236517  0.94909336  0.45866076    -0.11200
C810        C  0.36155748  0.95829933  0.47742009     0.04300
C811        C  0.35947712  0.98603136  0.49207592    -0.11800
C812        C  0.33847356  0.00472547  0.48862369     0.19100
C813        C  0.31940932  0.99581335  0.46988301    -0.08800
C814        C  0.32154669  0.96828376  0.45488812    -0.01800
H815        H  0.37430497  0.99306344  0.50633917     0.05600
C816        C  0.33700309  0.03359329  0.50467570     0.21100
H817        H  0.30658662  0.96152268  0.44071915     0.10800
C818        C  0.34850019  0.05979579  0.49370186    -0.15100
C819        C  0.34858874  0.08731987  0.50890544     0.03800
C820        C  0.33686514  0.08883434  0.53586904    -0.10500
C821        C  0.32510754  0.06234045  0.54651832    -0.00500
C822        C  0.32520656  0.03489103  0.53121329    -0.05600
H823        H  0.35768094  0.05870226  0.47323343     0.06800
H824        H  0.31607726  0.06273808  0.56707586     0.10200
Br825      Br  0.29004302  0.02031861  0.46461280    -0.05300
Br826      Br  0.39154987  0.93497566  0.48314166    -0.02300
Br827      Br  0.36529094  0.12126615  0.49110696     0.00600
Br828      Br  0.30958071  0.99943640  0.54750986    -0.03800
C829        C  0.18517628  0.73922207  0.53565127    -0.11200
C830        C  0.20312961  0.72346655  0.51927518     0.04300
C831        C  0.22172570  0.73981093  0.50505060    -0.11800
C832        C  0.22287109  0.77187561  0.50652065     0.19100
C833        C  0.20444285  0.78780640  0.52197263    -0.08800
C834        C  0.18580995  0.77143784  0.53640319    -0.01800
H835        H  0.23530834  0.72741352  0.49247358     0.05600
C836        C  0.24315938  0.78788269  0.49107682     0.21100
H837        H  0.17202893  0.78389832  0.54862610     0.10800
C838        C  0.23734467  0.80593903  0.46735022    -0.15100
C839        C  0.25618955  0.81951375  0.45102319     0.03800
C840        C  0.28153826  0.81504322  0.45837729    -0.10500
C841        C  0.28725431  0.79675345  0.48205933    -0.00500
C842        C  0.26839167  0.78333204  0.49837095    -0.05600
H843        H  0.21803023  0.80894660  0.46115171     0.06800
H844        H  0.30650664  0.79323867  0.48824785     0.10200
Br845      Br  0.20434061  0.83171506  0.52464304    -0.05300
Br846      Br  0.20220956  0.67984894  0.51359879    -0.02300
Br847      Br  0.24590915  0.84212576  0.41804241     0.00600
Br848      Br  0.27805744  0.75959465  0.53087799    -0.03800
loop_ 
_geom_bond_atom_site_label_1 
_geom_bond_atom_site_label_2 
_geom_bond_distance 
_geom_bond_site_symmetry_2 
_ccdc_geom_bond_type 
O1            C4   1.266       .  A
O1           Cd6   2.453       .  S
C2           O11   1.263       .  A
C2            O7   1.265       .  A
C2          C809   1.476       .  S
O3            C9   1.267       .  A
O3           Cd6   2.479       .  S
C4           O12   1.266       .  A
C4          C789   1.486       .  S
C5           O10   1.267       .  A
C5            O8   1.264       .  A
C5          C769   1.479       .  S
Cd6          O13   2.458       .  S
Cd6          O12   2.478       .  S
Cd6          O11   2.450       .  S
Cd6           O7   2.469       .  S
Cd6          O10   2.483       .  S
Cd6           O8   2.445       .  S
C9           O13   1.263       .  A
C9          C840   1.484       .  S
O14          C17   1.265       .  A
O14         Cd19   2.483       .  S
C15          O24   1.267       .  A
C15          O20   1.266       .  A
C15         C749   1.484       .  S
O16          C22   1.267       .  A
O16         Cd19   2.503       .  S
C17          O25   1.263       .  A
C17         C729   1.486       .  S
C18          O23   1.267       .  A
C18          O21   1.263       .  A
C18         C829   1.481       .  S
Cd19         O26   2.448       .  S
Cd19         O25   2.476       .  S
Cd19         O24   2.470       .  S
Cd19         O20   2.462       .  S
Cd19         O23   2.503       .  S
Cd19         O21   2.451       .  S
C22          O26   1.264       .  A
C22         C709   1.487       .  S
O27          C30   1.266       .  A
O27         Cd32   2.477       .  S
C28          O37   1.265       .  A
C28          O33   1.265       .  A
C28         C760   1.482       .  S
O29          C35   1.266       .  A
O29         Cd32   2.502       .  S
C30          O38   1.263       .  A
C30         C680   1.490       .  S
C31          O36   1.265       .  A
C31          O34   1.265       .  A
C31         C700   1.479       .  S
Cd32         O39   2.452       .  S
Cd32         O38   2.468       .  S
Cd32         O37   2.469       .  S
Cd32         O33   2.474       .  S
Cd32         O36   2.467       .  S
Cd32         O34   2.470       .  S
C35          O39   1.262       .  A
C35         C649   1.482       .  S
O40          C43   1.267       .  A
O40         Cd45   2.472       .  S
C41          O50   1.266       .  A
C41          O46   1.265       .  A
C41         C640   1.476       .  S
O42          C48   1.268       .  A
O42         Cd45   2.481       .  S
C43          O51   1.262       .  A
C43         C820   1.485       .  S
C44          O49   1.265       .  A
C44          O47   1.265       .  A
C44         C689   1.482       .  S
Cd45         O52   2.428       .  S
Cd45         O51   2.438       .  S
Cd45         O50   2.451       .  S
Cd45         O46   2.449       .  S
Cd45         O49   2.460       .  S
Cd45         O47   2.460       .  S
C48          O52   1.263       .  A
C48         C609   1.483       .  S
O53          C56   1.264       .  A
O53         Cd58   2.463       .  S
C54          O63   1.264       .  A
C54          O59   1.267       .  A
C54         C569   1.483       .  S
O55          C61   1.268       .  A
O55         Cd58   2.480       .  S
C56          O64   1.265       .  A
C56         C669   1.478       .  S
C57          O62   1.267       .  A
C57          O60   1.263       .  A
C57         C549   1.485       .  S
Cd58         O65   2.447       .  S
Cd58         O64   2.464       .  S
Cd58         O63   2.448       .  S
Cd58         O59   2.477       .  S
Cd58         O62   2.508       .  S
Cd58         O60   2.438       .  S
C61          O65   1.263       .  A
C61         C600   1.486       .  S
O66          C69   1.267       .  A
O66         Cd71   2.466       .  S
C67          O76   1.265       .  A
C67          O72   1.265       .  A
C67         C529   1.485       .  S
O68          C74   1.268       .  A
O68         Cd71   2.483       .  S
C69          O77   1.264       .  A
C69         C629   1.479       .  S
C70          O75   1.267       .  A
C70          O73   1.264       .  A
C70         C589   1.483       .  S
Cd71         O78   2.453       .  S
Cd71         O77   2.440       .  S
Cd71         O76   2.465       .  S
Cd71         O72   2.472       .  S
Cd71         O75   2.485       .  S
Cd71         O73   2.454       .  S
C74          O78   1.263       .  A
C74         C509   1.480       .  S
O79          C82   1.264       .  A
O79         Cd84   2.471       .  S
C80          O89   1.266       .  A
C80          O85   1.265       .  A
C80         C540   1.479       .  S
O81          C87   1.267       .  A
O81         Cd84   2.502       .  S
C82          O90   1.264       .  A
C82         C800   1.480       .  S
C83          O88   1.265       .  A
C83          O86   1.265       .  A
C83         C489   1.481       .  S
Cd84         O91   2.438       .  S
Cd84         O90   2.453       .  S
Cd84         O89   2.468       .  S
Cd84         O85   2.458       .  S
Cd84         O88   2.453       .  S
Cd84         O86   2.460       .  S
C87          O91   1.261       .  A
C87         C469   1.485       .  S
O92          C95   1.264       .  A
O92         Cd97   2.452       .  S
C93         O102   1.263       .  A
C93          O98   1.266       .  A
C93         C580   1.488       .  S
O94         C100   1.267       .  A
O94         Cd97   2.474       .  S
C95         O103   1.266       .  A
C95         C740   1.484       .  S
C96         O101   1.264       .  A
C96          O99   1.268       .  A
C96         C449   1.484       .  S
Cd97        O104   2.451       .  S
Cd97        O103   2.488       .  S
Cd97        O102   2.460       .  S
Cd97         O98   2.481       .  S
Cd97        O101   2.450       .  S
Cd97         O99   2.496       .  S
C100        O104   1.263       .  A
C100        C500   1.482       .  S
O105        C108   1.266       .  A
O105       Cd110   2.486       .  S
C106        O115   1.262       .  A
C106        O111   1.268       .  A
C106        C409   1.485       .  S
O107        C113   1.267       .  A
O107       Cd110   2.498       .  S
C108        O116   1.266       .  A
C108        C400   1.487       .  S
C109        O114   1.265       .  A
C109        O112   1.265       .  A
C109        C429   1.482       .  S
Cd110       O117   2.454       .  S
Cd110       O116   2.473       .  S
Cd110       O115   2.441       .  S
Cd110       O111   2.490       .  S
Cd110       O114   2.470       .  S
Cd110       O112   2.478       .  S
C113        O117   1.263       .  A
C113        C780   1.484       .  S
O118        C121   1.264       .  A
O118       Cd123   2.492       .  S
C119        O128   1.266       .  A
C119        O124   1.266       .  A
C119        C349   1.482       .  S
O120        C126   1.265       .  A
O120       Cd123   2.478       .  S
C121        O129   1.264       .  A
C121        C369   1.488       .  S
C122        O127   1.264       .  A
C122        O125   1.265       .  A
C122        C440   1.490       .  S
Cd123       O130   2.453       .  S
Cd123       O129   2.451       .  S
Cd123       O128   2.474       .  S
Cd123       O124   2.466       .  S
Cd123       O127   2.484       .  S
Cd123       O125   2.460       .  S
C126        O130   1.265       .  A
C126        C720   1.486       .  S
O131        C134   1.265       .  A
O131       Cd136   2.475       .  S
C132        O141   1.265       .  A
C132        O137   1.265       .  A
C132        C320   1.484       .  S
O133        C139   1.266       .  A
O133       Cd136   2.504       .  S
C134        O142   1.266       .  A
C134        C380   1.488       .  S
C135        O140   1.265       .  A
C135        O138   1.265       .  A
C135        C329   1.486       .  S
Cd136       O143   2.447       .  S
Cd136       O142   2.462       .  S
Cd136       O141   2.463       .  S
Cd136       O137   2.472       .  S
Cd136       O140   2.467       .  S
Cd136       O138   2.456       .  S
C139        O143   1.265       .  A
C139        C660   1.490       .  S
O144        C147   1.264       .  A
O144       Cd149   2.455       .  S
C145        O154   1.266       .  A
C145        O150   1.265       .  A
C145        C420   1.482       .  S
O146        C152   1.267       .  A
O146       Cd149   2.479       .  S
C147        O155   1.265       .  A
C147        C300   1.478       .  S
C148        O153   1.262       .  A
C148        O151   1.265       .  A
C148        C340   1.483       .  S
Cd149       O156   2.444       .  S
Cd149       O155   2.464       .  S
Cd149       O154   2.455       .  S
Cd149       O150   2.463       .  S
Cd149       O153   2.431       .  S
Cd149       O151   2.494       .  S
C152        O156   1.265       .  A
C152        C620   1.480       .  S
O157        C160   1.266       .  A
O157       Cd162   2.474       .  S
C158        O167   1.265       .  A
C158        O163   1.265       .  A
C158        C260   1.480       .  S
O159        C165   1.268       .  A
O159       Cd162   2.501       .  S
C160        O168   1.265       .  A
C160        C309   1.484       .  S
C161        O166   1.266       .  A
C161        O164   1.263       .  A
C161        C269   1.488       .  S
Cd162       O169   2.449       .  S
Cd162       O168   2.467       .  S
Cd162       O167   2.452       .  S
Cd162       O163   2.483       .  S
Cd162       O166   2.492       .  S
Cd162       O164   2.470       .  S
C165        O169   1.263       .  A
C165        C560   1.488       .  S
O170        C173   1.265       .  A
O170       Cd175   2.475       .  S
C171        O180   1.267       .  A
C171        O176   1.266       .  A
C171        C229   1.488       .  S
O172        C178   1.267       .  A
O172       Cd175   2.493       .  S
C173        O181   1.264       .  A
C173        C289   1.487       .  S
C174        O179   1.267       .  A
C174        O177   1.263       .  A
C174        C520   1.484       .  S
Cd175       O182   2.465       .  S
Cd175       O181   2.482       .  S
Cd175       O180   2.462       .  S
Cd175       O176   2.462       .  S
Cd175       O179   2.504       .  S
Cd175       O177   2.442       .  S
C178        O182   1.264       .  A
C178        C280   1.487       .  S
O183        C186   1.267       .  A
O183       Cd188   2.470       .  S
C184        O193   1.263       .  A
C184        O189   1.265       .  A
C184        C240   1.484       .  S
O185        C191   1.267       .  A
O185       Cd188   2.479       .  S
C186        O194   1.265       .  A
C186        C389   1.485       .  S
C187        O192   1.267       .  A
C187        O190   1.264       .  A
C187        C480   1.484       .  S
Cd188       O195   2.463       .  S
Cd188       O194   2.477       .  S
Cd188       O193   2.464       .  S
Cd188       O189   2.486       .  S
Cd188       O192   2.492       .  S
Cd188       O190   2.456       .  S
C191        O195   1.263       .  A
C191        C209   1.485       .  S
O196        C199   1.264       .  A
O196       Cd201   2.476       .  S
C197        O206   1.265       .  A
C197        O202   1.268       .  A
C197        C249   1.490       .  S
O198        C204   1.265       .  A
O198       Cd201   2.500       .  S
C199        O207   1.264       .  A
C199        C360   1.484       .  S
C200        O205   1.266       .  A
C200        O203   1.262       .  A
C200        C220   1.478       .  S
Cd201       O208   2.474       .  S
Cd201       O207   2.478       .  S
Cd201       O206   2.449       .  S
Cd201       O202   2.476       .  S
Cd201       O205   2.484       .  S
Cd201       O203   2.459       .  S
C204        O208   1.264       .  A
C204        C460   1.487       .  S
C209        C210   1.416       .  A
C209        C214   1.406       .  A
C210        C211   1.401       .  A
C210       Br226   1.921       .  S
C211        C212   1.402       .  A
C211        H215   1.084       .  S
C212        C216   1.483       .  S
C212        C213   1.409       .  A
C213        C214   1.399       .  A
C213       Br225   1.920   1_554  S
C214        H217   1.083       .  S
C216        C218   1.403       .  A
C216        C222   1.410       .  A
C218        C219   1.400       .  A
C218        H223   1.083       .  S
C219        C220   1.412   1_554  A
C219       Br227   1.921       .  S
C220        C221   1.403       .  A
C221        C222   1.400   1_556  A
C221        H224   1.083       .  S
C222       Br228   1.918   1_554  S
C229        C230   1.417       .  A
C229        C234   1.408       .  A
C230        C231   1.400       .  A
C230       Br246   1.921       .  S
C231        C232   1.400   1_556  A
C231        H235   1.083       .  S
C232        C236   1.479       .  S
C232        C233   1.406       .  A
C233        C234   1.399   1_554  A
C233       Br245   1.920       .  S
C234        H237   1.083   1_556  S
C236        C238   1.402   1_545  A
C236        C242   1.406   1_545  A
C238        C239   1.402       .  A
C238        H243   1.082   1_565  S
C239        C240   1.415       .  A
C239       Br247   1.920       .  S
C240        C241   1.407       .  A
C241        C242   1.398       .  A
C241        H244   1.083       .  S
C242       Br248   1.920   1_554  S
C249        C250   1.419   1_556  A
C249        C254   1.410       .  A
C250        C251   1.399       .  A
C250       Br266   1.921       .  S
C251        C252   1.398       .  A
C251        H255   1.084       .  S
C252        C256   1.476       .  S
C252        C253   1.404   1_554  A
C253        C254   1.400       .  A
C253       Br265   1.919       .  S
C254        H257   1.083       .  S
C256        C258   1.402       .  A
C256        C262   1.405       .  A
C258        C259   1.404       .  A
C258        H263   1.082       .  S
C259        C260   1.415       .  A
C259       Br267   1.920       .  S
C260        C261   1.405       .  A
C261        C262   1.395       .  A
C261        H264   1.083       .  S
C262       Br268   1.920       .  S
C269        C270   1.416       .  A
C269        C274   1.408       .  A
C270        C271   1.401       .  A
C270       Br286   1.921       .  S
C271        C272   1.400       .  A
C271        H275   1.083       .  S
C272        C276   1.481       .  S
C272        C273   1.406       .  A
C273        C274   1.401       .  A
C273       Br285   1.918   1_554  S
C274        H277   1.083       .  S
C276        C278   1.402   1_554  A
C276        C282   1.405       .  A
C278        C279   1.403       .  A
C278        H283   1.082       .  S
C279        C280   1.414       .  A
C279       Br287   1.919       .  S
C280        C281   1.408       .  A
C281        C282   1.401   1_556  A
C281        H284   1.081       .  S
C282       Br288   1.919       .  S
C289        C290   1.416       .  A
C289        C294   1.407       .  A
C290        C291   1.401       .  A
C290       Br306   1.920       .  S
C291        C292   1.402       .  A
C291        H295   1.082       .  S
C292        C296   1.480       .  S
C292        C293   1.407       .  A
C293        C294   1.398       .  A
C293       Br305   1.920       .  S
C294        H297   1.082       .  S
C296        C298   1.403       .  A
C296        C302   1.408       .  A
C298        C299   1.400       .  A
C298        H303   1.083       .  S
C299        C300   1.412       .  A
C299       Br307   1.920       .  S
C300        C301   1.404       .  A
C301        C302   1.397       .  A
C301        H304   1.083       .  S
C302       Br308   1.919       .  S
C309        C310   1.415       .  A
C309        C314   1.407       .  A
C310        C311   1.399       .  A
C310       Br326   1.921       .  S
C311        C312   1.402       .  A
C311        H315   1.083       .  S
C312        C316   1.482       .  S
C312        C313   1.407       .  A
C313        C314   1.401       .  A
C313       Br325   1.919       .  S
C314        H317   1.082       .  S
C316        C318   1.403       .  A
C316        C322   1.406       .  A
C318        C319   1.401       .  A
C318        H323   1.083       .  S
C319        C320   1.415       .  A
C319       Br327   1.921       .  S
C320        C321   1.407       .  A
C321        C322   1.399       .  A
C321        H324   1.083       .  S
C322       Br328   1.919       .  S
C329        C330   1.416       .  A
C329        C334   1.409       .  A
C330        C331   1.398       .  A
C330       Br346   1.921       .  S
C331        C332   1.402       .  A
C331        H335   1.082       .  S
C332        C336   1.481       .  S
C332        C333   1.407       .  A
C333        C334   1.398       .  A
C333       Br345   1.921       .  S
C334        H337   1.081       .  S
C336        C338   1.404       .  A
C336        C342   1.407       .  A
C338        C339   1.401       .  A
C338        H343   1.082       .  S
C339        C340   1.414       .  A
C339       Br347   1.920       .  S
C340        C341   1.407       .  A
C341        C342   1.395       .  A
C341        H344   1.083       .  S
C342       Br348   1.921       .  S
C349        C350   1.414       .  A
C349        C354   1.406       .  A
C350        C351   1.402       .  A
C350       Br366   1.920       .  S
C351        C352   1.403       .  A
C351        H355   1.083       .  S
C352        C356   1.481       .  S
C352        C353   1.407       .  A
C353        C354   1.398       .  A
C353       Br365   1.920       .  S
C354        H357   1.083       .  S
C356        C358   1.402       .  A
C356        C362   1.407       .  A
C358        C359   1.400       .  A
C358        H363   1.083       .  S
C359        C360   1.414       .  A
C359       Br367   1.921       .  S
C360        C361   1.407       .  A
C361        C362   1.400       .  A
C361        H364   1.083       .  S
C362       Br368   1.919       .  S
C369        C370   1.418       .  A
C369        C374   1.408       .  A
C370        C371   1.404       .  A
C370       Br386   1.921       .  S
C371        C372   1.401       .  A
C371        H375   1.083       .  S
C372        C376   1.476       .  S
C372        C373   1.403       .  A
C373        C374   1.395       .  A
C373       Br385   1.919       .  S
C374        H377   1.082       .  S
C376        C378   1.400       .  A
C376        C382   1.404       .  A
C378        C379   1.401       .  A
C378        H383   1.083       .  S
C379        C380   1.418       .  A
C379       Br387   1.921       .  S
C380        C381   1.409       .  A
C381        C382   1.398       .  A
C381        H384   1.082       .  S
C382       Br388   1.918       .  S
C389        C390   1.416       .  A
C389        C394   1.406       .  A
C390        C391   1.403       .  A
C390       Br406   1.920       .  S
C391        C392   1.401       .  A
C391        H395   1.083       .  S
C392        C396   1.479       .  S
C392        C393   1.406       .  A
C393        C394   1.398       .  A
C393       Br405   1.919       .  S
C394        H397   1.083       .  S
C396        C398   1.401       .  A
C396        C402   1.405       .  A
C398        C399   1.402       .  A
C398        H403   1.082       .  S
C399        C400   1.415       .  A
C399       Br407   1.919       .  S
C400        C401   1.408       .  A
C401        C402   1.400       .  A
C401        H404   1.083       .  S
C402       Br408   1.918       .  S
C409        C410   1.419       .  A
C409        C414   1.408       .  A
C410        C411   1.398       .  A
C410       Br426   1.922       .  S
C411        C412   1.397       .  A
C411        H415   1.085       .  S
C412        C416   1.475   1_565  S
C412        C413   1.405       .  A
C413        C414   1.400       .  A
C413       Br425   1.918   1_565  S
C414        H417   1.084       .  S
C416        C418   1.400       .  A
C416        C422   1.404       .  A
C418        C419   1.401       .  A
C418        H423   1.082       .  S
C419        C420   1.417       .  A
C419       Br427   1.921       .  S
C420        C421   1.406       .  A
C421        C422   1.397       .  A
C421        H424   1.083       .  S
C422       Br428   1.919       .  S
C429        C430   1.413       .  A
C429        C434   1.407       .  A
C430        C431   1.400       .  A
C430       Br446   1.919       .  S
C431        C432   1.402       .  A
C431        H435   1.083       .  S
C432        C436   1.480       .  S
C432        C433   1.407       .  A
C433        C434   1.400       .  A
C433       Br445   1.919       .  S
C434        H437   1.083       .  S
C436        C438   1.402       .  A
C436        C442   1.406       .  A
C438        C439   1.402       .  A
C438        H443   1.082       .  S
C439        C440   1.418       .  A
C439       Br447   1.921       .  S
C440        C441   1.409       .  A
C441        C442   1.397       .  A
C441        H444   1.082       .  S
C442       Br448   1.920       .  S
C449        C450   1.415       .  A
C449        C454   1.406       .  A
C450        C451   1.400       .  A
C450       Br466   1.922       .  S
C451        C452   1.402       .  A
C451        H455   1.082       .  S
C452        C456   1.481   1_455  S
C452        C453   1.407       .  A
C453        C454   1.402       .  A
C453       Br465   1.917       .  S
C454        H457   1.082       .  S
C456        C458   1.401       .  A
C456        C462   1.407       .  A
C458        C459   1.399       .  A
C458        H463   1.084       .  S
C459        C460   1.414       .  A
C459       Br467   1.920       .  S
C460        C461   1.409       .  A
C461        C462   1.404       .  A
C461        H464   1.083       .  S
C462       Br468   1.918       .  S
C469        C470   1.417       .  A
C469        C474   1.407       .  A
C470        C471   1.398       .  A
C470       Br486   1.922       .  S
C471        C472   1.400       .  A
C471        H475   1.083       .  S
C472        C476   1.480       .  S
C472        C473   1.407       .  A
C473        C474   1.402       .  A
C473       Br485   1.918       .  S
C474        H477   1.082       .  S
C476        C478   1.401       .  A
C476        C482   1.407       .  A
C478        C479   1.399       .  A
C478        H483   1.084       .  S
C479        C480   1.414       .  A
C479       Br487   1.921       .  S
C480        C481   1.407       .  A
C481        C482   1.402       .  A
C481        H484   1.083       .  S
C482       Br488   1.919       .  S
C489        C490   1.416       .  A
C489        C494   1.408       .  A
C490        C491   1.397   1_554  A
C490       Br506   1.921   1_554  S
C491        C492   1.398   1_556  A
C491        H495   1.084       .  S
C492        C496   1.472   1_554  S
C492        C493   1.405       .  A
C493        C494   1.398       .  A
C493       Br505   1.920       .  S
C494        H497   1.084       .  S
C496        C498   1.398       .  A
C496        C502   1.405       .  A
C498        C499   1.398       .  A
C498        H503   1.083       .  S
C499        C500   1.417       .  A
C499       Br507   1.922       .  S
C500        C501   1.406       .  A
C501        C502   1.397       .  A
C501        H504   1.084       .  S
C502       Br508   1.919       .  S
C509        C510   1.415       .  A
C509        C514   1.405       .  A
C510        C511   1.400       .  A
C510       Br526   1.920       .  S
C511        C512   1.401       .  A
C511        H515   1.084       .  S
C512        C516   1.477       .  S
C512        C513   1.406       .  A
C513        C514   1.399       .  A
C513       Br525   1.917       .  S
C514        H517   1.084       .  S
C516        C518   1.403       .  A
C516        C522   1.404       .  A
C518        C519   1.404       .  A
C518        H523   1.082       .  S
C519        C520   1.415       .  A
C519       Br527   1.919       .  S
C520        C521   1.406       .  A
C521        C522   1.395       .  A
C521        H524   1.083       .  S
C522       Br528   1.920       .  S
C529        C530   1.416       .  A
C529        C534   1.408       .  A
C530        C531   1.400       .  A
C530       Br546   1.920       .  S
C531        C532   1.401       .  A
C531        H535   1.082       .  S
C532        C536   1.479   1_546  S
C532        C533   1.406   1_556  A
C533        C534   1.399   1_554  A
C533       Br545   1.920       .  S
C534        H537   1.082   1_556  S
C536        C538   1.401       .  A
C536        C542   1.407       .  A
C538        C539   1.399       .  A
C538        H543   1.082   1_565  S
C539        C540   1.414       .  A
C539       Br547   1.921       .  S
C540        C541   1.406       .  A
C541        C542   1.399       .  A
C541        H544   1.082       .  S
C542       Br548   1.919   1_554  S
C549        C550   1.415       .  A
C549        C554   1.406       .  A
C550        C551   1.405       .  A
C550       Br566   1.919       .  S
C551        C552   1.404   1_455  A
C551        H555   1.081       .  S
C552        C556   1.482       .  S
C552        C553   1.406   1_655  A
C553        C554   1.395       .  A
C553       Br565   1.920   1_455  S
C554        H557   1.083       .  S
C556        C558   1.400       .  A
C556        C562   1.407       .  A
C558        C559   1.397       .  A
C558        H563   1.084       .  S
C559        C560   1.417       .  A
C559       Br567   1.922       .  S
C560        C561   1.409       .  A
C561        C562   1.404       .  A
C561        H564   1.083       .  S
C562       Br568   1.918       .  S
C569        C570   1.415       .  A
C569        C574   1.407       .  A
C570        C571   1.398   1_554  A
C570       Br586   1.922       .  S
C571        C572   1.400   1_556  A
C571        H575   1.084       .  S
C572        C576   1.479   1_554  S
C572        C573   1.407       .  A
C573        C574   1.401       .  A
C573       Br585   1.919       .  S
C574        H577   1.083       .  S
C576        C578   1.400       .  A
C576        C582   1.406       .  A
C578        C579   1.398       .  A
C578        H583   1.085   1_556  S
C579        C580   1.417       .  A
C579       Br587   1.922       .  S
C580        C581   1.409       .  A
C581        C582   1.401       .  A
C581        H584   1.084       .  S
C582       Br588   1.919       .  S
C589        C590   1.415       .  A
C589        C594   1.405       .  A
C590        C591   1.399       .  A
C590       Br606   1.921       .  S
C591        C592   1.401       .  A
C591        H595   1.083   1_556  S
C592        C596   1.483   1_556  S
C592        C593   1.409       .  A
C593        C594   1.401       .  A
C593       Br605   1.919       .  S
C594        H597   1.083       .  S
C596        C598   1.402       .  A
C596        C602   1.408       .  A
C598        C599   1.400       .  A
C598        H603   1.084       .  S
C599        C600   1.417       .  A
C599       Br607   1.922       .  S
C600        C601   1.406       .  A
C601        C602   1.399       .  A
C601        H604   1.083       .  S
C602       Br608   1.919   1_554  S
C609        C610   1.417       .  A
C609        C614   1.408       .  A
C610        C611   1.396       .  A
C610       Br626   1.923       .  S
C611        C612   1.399       .  A
C611        H615   1.083       .  S
C612        C616   1.476       .  S
C612        C613   1.405       .  A
C613        C614   1.401       .  A
C613       Br625   1.917       .  S
C614        H617   1.083       .  S
C616        C618   1.402       .  A
C616        C622   1.405       .  A
C618        C619   1.401       .  A
C618        H623   1.083       .  S
C619        C620   1.413       .  A
C619       Br627   1.920       .  S
C620        C621   1.406       .  A
C621        C622   1.397       .  A
C621        H624   1.083       .  S
C622       Br628   1.920       .  S
C629        C630   1.415       .  A
C629        C634   1.406       .  A
C630        C631   1.396       .  A
C630       Br646   1.921       .  S
C631        C632   1.400       .  A
C631        H635   1.083       .  S
C632        C636   1.477       .  S
C632        C633   1.407       .  A
C633        C634   1.399       .  A
C633       Br645   1.919       .  S
C634        H637   1.083       .  S
C636        C638   1.402       .  A
C636        C642   1.407       .  A
C638        C639   1.396       .  A
C638        H643   1.083       .  S
C639        C640   1.413       .  A
C639       Br647   1.921       .  S
C640        C641   1.406       .  A
C641        C642   1.398       .  A
C641        H644   1.083       .  S
C642       Br648   1.919       .  S
C649        C650   1.414       .  A
C649        C654   1.407       .  A
C650        C651   1.397       .  A
C650       Br666   1.921       .  S
C651        C652   1.400       .  A
C651        H655   1.084       .  S
C652        C656   1.478   1_455  S
C652        C653   1.406       .  A
C653        C654   1.403       .  A
C653       Br665   1.918       .  S
C654        H657   1.084       .  S
C656        C658   1.401       .  A
C656        C662   1.404       .  A
C658        C659   1.405       .  A
C658        H663   1.083       .  S
C659        C660   1.419       .  A
C659       Br667   1.920       .  S
C660        C661   1.408       .  A
C661        C662   1.395       .  A
C661        H664   1.082       .  S
C662       Br668   1.920       .  S
C669        C670   1.413       .  A
C669        C674   1.405       .  A
C670        C671   1.399       .  A
C670       Br686   1.921       .  S
C671        C672   1.402       .  A
C671        H675   1.083       .  S
C672        C676   1.478       .  S
C672        C673   1.406       .  A
C673        C674   1.398       .  A
C673       Br685   1.918       .  S
C674        H677   1.083       .  S
C676        C678   1.400       .  A
C676        C682   1.405       .  A
C678        C679   1.399       .  A
C678        H683   1.083       .  S
C679        C680   1.419       .  A
C679       Br687   1.922       .  S
C680        C681   1.409       .  A
C681        C682   1.399       .  A
C681        H684   1.083       .  S
C682       Br688   1.919       .  S
C689        C690   1.415       .  A
C689        C694   1.408       .  A
C690        C691   1.398       .  A
C690       Br706   1.921       .  S
C691        C692   1.400       .  A
C691        H695   1.083       .  S
C692        C696   1.476       .  S
C692        C693   1.406       .  A
C693        C694   1.399       .  A
C693       Br705   1.919       .  S
C694        H697   1.082       .  S
C696        C698   1.402       .  A
C696        C702   1.405       .  A
C698        C699   1.400       .  A
C698        H703   1.082       .  S
C699        C700   1.412       .  A
C699       Br707   1.920       .  S
C700        C701   1.406       .  A
C701        C702   1.399       .  A
C701        H704   1.083       .  S
C702       Br708   1.919       .  S
C709        C710   1.417       .  A
C709        C714   1.407       .  A
C710        C711   1.403       .  A
C710       Br726   1.919       .  S
C711        C712   1.401   1_455  A
C711        H715   1.083   1_455  S
C712        C716   1.477       .  S
C712        C713   1.405   1_655  A
C713        C714   1.397       .  A
C713       Br725   1.920   1_455  S
C714        H717   1.083       .  S
C716        C718   1.401       .  A
C716        C722   1.405       .  A
C718        C719   1.403       .  A
C718        H723   1.083       .  S
C719        C720   1.417       .  A
C719       Br727   1.921       .  S
C720        C721   1.407       .  A
C721        C722   1.395       .  A
C721        H724   1.083       .  S
C722       Br728   1.919       .  S
C729        C730   1.417       .  A
C729        C734   1.408       .  A
C730        C731   1.400       .  A
C730       Br746   1.921       .  S
C731        C732   1.400       .  A
C731        H735   1.083       .  S
C732        C736   1.478       .  S
C732        C733   1.405       .  A
C733        C734   1.401       .  A
C733       Br745   1.917       .  S
C734        H737   1.082       .  S
C736        C738   1.400       .  A
C736        C742   1.406       .  A
C738        C739   1.399       .  A
C738        H743   1.083       .  S
C739        C740   1.416       .  A
C739       Br747   1.922       .  S
C740        C741   1.408       .  A
C741        C742   1.402       .  A
C741        H744   1.083       .  S
C742       Br748   1.917       .  S
C749        C750   1.414       .  A
C749        C754   1.406       .  A
C750        C751   1.400       .  A
C750       Br766   1.921       .  S
C751        C752   1.404       .  A
C751        H755   1.082       .  S
C752        C756   1.488       .  S
C752        C753   1.410       .  A
C753        C754   1.401       .  A
C753       Br765   1.920       .  S
C754        H757   1.082       .  S
C756        C758   1.405       .  A
C756        C762   1.410       .  A
C758        C759   1.401       .  A
C758        H763   1.082       .  S
C759        C760   1.413       .  A
C759       Br767   1.921       .  S
C760        C761   1.405       .  A
C761        C762   1.400       .  A
C761        H764   1.083       .  S
C762       Br768   1.920       .  S
C769        C770   1.413       .  A
C769        C774   1.406       .  A
C770        C771   1.398       .  A
C770       Br786   1.921       .  S
C771        C772   1.401       .  A
C771        H775   1.084       .  S
C772        C776   1.478       .  S
C772        C773   1.407       .  A
C773        C774   1.400       .  A
C773       Br785   1.918       .  S
C774        H777   1.084       .  S
C776        C778   1.400       .  A
C776        C782   1.407       .  A
C778        C779   1.397       .  A
C778        H783   1.083       .  S
C779        C780   1.415       .  A
C779       Br787   1.921       .  S
C780        C781   1.408       .  A
C781        C782   1.402       .  A
C781        H784   1.082       .  S
C782       Br788   1.918       .  S
C789        C790   1.417       .  A
C789        C794   1.408       .  A
C790        C791   1.402       .  A
C790       Br806   1.920       .  S
C791        C792   1.401       .  A
C791        H795   1.083       .  S
C792        C796   1.476       .  S
C792        C793   1.404       .  A
C793        C794   1.397       .  A
C793       Br805   1.919       .  S
C794        H797   1.082       .  S
C796        C798   1.402       .  A
C796        C802   1.404       .  A
C798        C799   1.402       .  A
C798        H803   1.083       .  S
C799        C800   1.415       .  A
C799       Br807   1.921       .  S
C800        C801   1.405       .  A
C801        C802   1.395       .  A
C801        H804   1.083       .  S
C802       Br808   1.919       .  S
C809        C810   1.414       .  A
C809        C814   1.406       .  A
C810        C811   1.397       .  A
C810       Br826   1.921       .  S
C811        C812   1.399   1_565  A
C811        H815   1.085       .  S
C812        C816   1.471       .  S
C812        C813   1.405   1_545  A
C813        C814   1.398       .  A
C813       Br825   1.918   1_565  S
C814        H817   1.084       .  S
C816        C818   1.397       .  A
C816        C822   1.403       .  A
C818        C819   1.398       .  A
C818        H823   1.084       .  S
C819        C820   1.420       .  A
C819       Br827   1.923       .  S
C820        C821   1.408       .  A
C821        C822   1.397       .  A
C821        H824   1.084       .  S
C822       Br828   1.919   1_545  S
C829        C830   1.412       .  A
C829        C834   1.405       .  A
C830        C831   1.397       .  A
C830       Br846   1.921       .  S
C831        C832   1.401       .  A
C831        H835   1.084       .  S
C832        C836   1.483       .  S
C832        C833   1.411       .  A
C833        C834   1.404       .  A
C833       Br845   1.919       .  S
C834        H837   1.083       .  S
C836        C838   1.402       .  A
C836        C842   1.409       .  A
C838        C839   1.401       .  A
C838        H843   1.083       .  S
C839        C840   1.415       .  A
C839       Br847   1.921       .  S
C840        C841   1.405       .  A
C841        C842   1.399       .  A
C841        H844   1.083       .  S
C842       Br848   1.920       .  S
