geometry optimzed in LAMMPS
_audit_creation_date              2020-12-01 
_audit_creation_method            'lammps2cif' 
_symmetry_space_group_name_H-M    'P1' 
_symmetry_Int_Tables_number       1 
_symmetry_cell_setting            triclinic 
loop_ 
_symmetry_equiv_pos_as_xyz 
  x,y,z 
_cell_length_a                    39.12802839 
_cell_length_b                    38.393575019956906 
_cell_length_c                    32.82808800486999 
_cell_angle_alpha                 90.08810064235549 
_cell_angle_beta                  90.04740196059076 
_cell_angle_gamma                 91.63267804564997 
loop_ 
_atom_site_label 
_atom_site_type_symbol 
_atom_site_fract_x 
_atom_site_fract_y 
_atom_site_fract_z 
_atom_site_charge 
O1          O  0.47162928  0.28652192  0.45551456    -0.73000
O2          O  0.47099086  0.21186202  0.54076028    -0.74000
O3          O  0.47066892  0.28616867  0.54158861    -0.62600
O4          O  0.47241014  0.21302463  0.45381508    -0.71000
O5          O  0.02914506  0.21521611  0.45544674    -0.70600
O6          O  0.02736416  0.28744559  0.54347687    -0.61800
O7          O  0.02771603  0.21326905  0.54123144    -0.74300
O8          O  0.02845488  0.28895752  0.45674061    -0.73100
Cu9        Cu  0.46943784  0.24927607  0.49794622     1.04600
Cu10       Cu  0.03014532  0.25131185  0.49932041     1.04300
C11         C  0.00004191  0.29946125  0.44282792     0.93200
C12         C  0.49923742  0.20038337  0.55407155     0.92300
C13         C  0.49879350  0.29863983  0.55609632     0.84500
C14         C  0.00118374  0.20274233  0.44067179     0.90800
C15         C  0.49970490  0.50022898  0.24677610    -0.02500
C16         C  0.49942232  0.50045091  0.75363887    -0.02500
O17         O  0.28578930  0.46930875  0.04217455    -0.73000
O18         O  0.21039968  0.47149189  0.96009035    -0.74000
O19         O  0.28328230  0.47015798  0.95631526    -0.62600
O20         O  0.21334785  0.47111765  0.04627038    -0.71000
O21         O  0.21441232  0.02890950  0.04398725    -0.70600
O22         O  0.28751772  0.02783546  0.95915369    -0.61800
O23         O  0.21467566  0.02920652  0.95790027    -0.74300
O24         O  0.28695237  0.02717032  0.04500394    -0.73100
Cu25       Cu  0.24805240  0.46848871  0.00113210     1.04600
Cu26       Cu  0.25094555  0.03030235  0.00148969     1.04300
C27         C  0.29822503  0.99784935  0.05642901     0.93200
C28         C  0.20047277  0.00054074  0.94604699     0.92300
C29         C  0.29740584  0.99890415  0.94471623     0.84500
C30         C  0.20244131  0.00034075  0.05876978     0.90800
C31         C  0.09655332  0.44439763  0.88806126    -0.17900
C32         C  0.06830783  0.44495875  0.86202488    -0.20100
C33         C  0.06348535  0.47350283  0.83623193     0.20600
C34         C  0.08713680  0.00184133  0.83679245    -0.03000
C35         C  0.11551882  0.00144183  0.86331380    -0.06000
C36         C  0.12029436  0.47246814  0.88888277     0.20900
C37         C  0.13891318  0.03010862  0.86449805     0.19000
C38         C  0.13381294  0.05876995  0.83894975    -0.17500
C39         C  0.10569626  0.05910861  0.81260109    -0.19700
C40         C  0.08222588  0.03076360  0.81129102     0.20500
C41         C  0.05397793  0.03094608  0.78494744    -0.32800
C42         C  0.03086907  0.50197044  0.78249211     0.01200
C43         C  0.03549633  0.47400005  0.80974153    -0.24100
C44         C  0.14855978  0.97217396  0.91503755    -0.28700
C45         C  0.17178301  0.00077246  0.91676499     0.06900
C46         C  0.16678909  0.02969624  0.89143177    -0.27300
H47         H  0.09978449  0.42203190  0.90764426     0.11600
H48         H  0.05030064  0.42298881  0.86193538     0.12700
H49         H  0.15153352  0.08097603  0.83941095     0.11800
H50         H  0.10233573  0.08155144  0.79318082     0.11100
H51         H  0.05014106  0.05410905  0.76708440     0.16400
H52         H  0.01742695  0.45205877  0.80947970     0.12400
H53         H  0.15196050  0.44999741  0.93492904     0.15200
H54         H  0.18464051  0.05179815  0.89259429     0.15000
C55         C  0.40161502  0.05570198  0.88834033    -0.17900
C56         C  0.43014110  0.05530727  0.86272801    -0.20100
C57         C  0.43554153  0.02667597  0.83714580     0.20600
C58         C  0.41239834  0.49790353  0.83797488    -0.03000
C59         C  0.38376158  0.49812934  0.86409870    -0.06000
C60         C  0.37817061  0.02735664  0.88900642     0.20900
C61         C  0.36071369  0.46916638  0.86518773     0.19000
C62         C  0.36669418  0.44016527  0.84041063    -0.17500
C63         C  0.39505221  0.43999328  0.81448896    -0.19700
C64         C  0.41786944  0.46886316  0.81279731     0.20500
C65         C  0.44589016  0.46915577  0.78617866    -0.32800
C66         C  0.46824894  0.49871621  0.78299594     0.01200
C67         C  0.46341242  0.02661229  0.81037970    -0.24100
C68         C  0.34937240  0.02767160  0.91432895    -0.28700
C69         C  0.32636349  0.99885197  0.91579050     0.06900
C70         C  0.33225410  0.46964537  0.89119054    -0.27300
H71         H  0.39783414  0.07823988  0.90755564     0.11600
H72         H  0.44777956  0.07758223  0.86258827     0.12700
H73         H  0.34936636  0.41764782  0.84096991     0.11800
H74         H  0.39897086  0.41736410  0.79546874     0.11100
H75         H  0.45014681  0.44586091  0.76864365     0.16400
H76         H  0.48109692  0.04887199  0.80988609     0.12400
H77         H  0.34529677  0.05011449  0.93363201     0.15200
H78         H  0.31468632  0.44731300  0.89225291     0.15000
C79         C  0.13869213  0.44801180  0.17480359    -0.17900
C80         C  0.11117944  0.44847066  0.20202359    -0.20100
C81         C  0.08767309  0.47542359  0.20058672     0.20600
C82         C  0.09256509  0.00268699  0.17228393    -0.03000
C83         C  0.12070390  0.00265419  0.14546465    -0.06000
C84         C  0.14351057  0.47481478  0.14617030     0.20900
C85         C  0.12562516  0.03017598  0.11745141     0.19000
C86         C  0.10265239  0.05754401  0.11666603    -0.17500
C87         C  0.07452948  0.05727972  0.14282636    -0.19700
C88         C  0.06915571  0.02981211  0.17040415     0.20500
C89         C  0.04023436  0.02862462  0.19530116    -0.32800
C90         C  0.03375748  0.50059459  0.22242800     0.01200
C91         C  0.05906453  0.47517821  0.22639070    -0.24100
C92         C  0.17040138  0.47413301  0.11789054    -0.28700
C93         C  0.17515691  0.00137416  0.08968467     0.06900
C94         C  0.15304909  0.02956779  0.09017740    -0.27300
H95         H  0.15608271  0.42656835  0.17598044     0.11600
H96         H  0.10786982  0.42733171  0.22361980     0.12700
H97         H  0.10613126  0.07887826  0.09536168     0.11800
H98         H  0.05677095  0.07838016  0.14118638     0.11100
H99         H  0.02178880  0.04905608  0.19267660     0.16400
H100        H  0.05692199  0.45489403  0.24900431     0.12400
H101        H  0.18764413  0.45251840  0.11784679     0.15200
H102        H  0.15652946  0.05054810  0.06836072     0.15000
C103        C  0.42073047  0.98480175  0.08055018    -0.17900
C104        C  0.44871051  0.98435555  0.10695570    -0.20100
C105        C  0.44419118  0.98915727  0.14899415     0.20600
C106        C  0.41119042  0.99381434  0.16472779    -0.03000
C107        C  0.38291080  0.99441641  0.13808129    -0.06000
C108        C  0.38781113  0.99001961  0.09577469     0.20900
C109        C  0.34982147  0.49962560  0.15371379     0.19000
C110        C  0.34529768  0.50332076  0.19589865    -0.17500
C111        C  0.37335458  0.50225320  0.22234773    -0.19700
C112        C  0.40644383  0.49781876  0.20702431     0.20500
C113        C  0.43492329  0.49812549  0.23311359    -0.32800
C114        C  0.46854377  0.49669882  0.21749410     0.01200
C115        C  0.47231016  0.98990909  0.17530382    -0.24100
C116        C  0.35971559  0.99102859  0.06945078    -0.28700
C117        C  0.32698314  0.99683140  0.08480281     0.06900
C118        C  0.32196627  0.50107736  0.12681237    -0.27300
H119        H  0.42487562  0.98131620  0.04817425     0.11600
H120        H  0.47396218  0.98065410  0.09443333     0.12700
H121        H  0.32007297  0.50715300  0.20842825     0.11800
H122        H  0.36922777  0.50539325  0.25476381     0.11100
H123        H  0.43116368  0.50124385  0.26561836     0.16400
H124        H  0.49702339  0.98500140  0.16220537     0.12400
H125        H  0.36325595  0.98763983  0.03691348     0.15200
H126        H  0.29645671  0.50522351  0.13839314     0.15000
C127        C  0.48868071  0.42360250  0.41516315    -0.17900
C128        C  0.48707190  0.45137793  0.38795584    -0.20100
C129        C  0.49016232  0.44568667  0.34590674     0.20600
C130        C  0.99401282  0.41166590  0.33092643    -0.03000
C131        C  0.99555300  0.38352829  0.35838655    -0.06000
C132        C  0.49318106  0.38969359  0.40071161     0.20900
C133        C  0.99964311  0.34934330  0.34358596     0.19000
C134        C  0.00141348  0.34364375  0.30136873    -0.17500
C135        C  0.99970977  0.37163334  0.27412124    -0.19700
C136        C  0.99638602  0.40581228  0.28863525     0.20500
C137        C  0.99638114  0.43432462  0.26178611    -0.32800
C138        C  0.49595253  0.46895407  0.27665140     0.01200
C139        C  0.49020882  0.47370418  0.31886057    -0.24100
C140        C  0.49523790  0.36185626  0.42790107    -0.28700
C141        C  0.49966766  0.32801139  0.41342638     0.06900
C142        C  0.00176830  0.32163392  0.37136876    -0.27300
H143        H  0.48662645  0.42867313  0.44753619     0.11600
H144        H  0.48397449  0.47743796  0.39987479     0.12700
H145        H  0.00432691  0.31757205  0.28943125     0.11800
H146        H  0.00150401  0.36660403  0.24171943     0.11100
H147        H  0.99860837  0.42980565  0.22930352     0.16400
H148        H  0.48588757  0.49919338  0.33150014     0.13200
H149        H  0.49323244  0.36639693  0.46043223     0.15200
H150        H  0.00471813  0.29522119  0.36045086     0.15000
C151        C  0.05834660  0.10385324  0.37739427    -0.17900
C152        C  0.05805842  0.07590037  0.35009959    -0.20100
C153        C  0.03080027  0.07083695  0.32274270     0.20600
C154        C  0.50408367  0.09461508  0.32197813    -0.03000
C155        C  0.50405255  0.12251713  0.34997573    -0.06000
C156        C  0.03120138  0.12692509  0.37800857     0.20900
C157        C  0.47651424  0.14547357  0.35053660     0.19000
C158        C  0.45014365  0.14130855  0.32178092    -0.17500
C159        C  0.45060825  0.11408264  0.29338934    -0.19700
C160        C  0.47711901  0.09017546  0.29378218     0.20500
C161        C  0.47655120  0.06141027  0.26729112    -0.32800
C162        C  0.50123731  0.03531864  0.27065513     0.01200
C163        C  0.02924994  0.04166828  0.29723578    -0.24100
C164        C  0.03039796  0.15385114  0.40674055    -0.28700
C165        C  0.50238501  0.17588095  0.40861369     0.06900
C166        C  0.47563815  0.17178728  0.38022786    -0.27300
H167        H  0.07944854  0.10699759  0.39860242     0.11600
H168        H  0.07889609  0.05791803  0.35082497     0.12700
H169        H  0.42897234  0.15889627  0.32151136     0.11800
H170        H  0.42972721  0.11116569  0.27184198     0.11100
H171        H  0.45638722  0.05956050  0.24491091     0.16400
H172        H  0.04919574  0.02271378  0.29932607     0.12400
H173        H  0.05107763  0.15694386  0.42857648     0.15200
H174        H  0.45424025  0.18910237  0.38123151     0.15000
C175        C  0.05593176  0.39582145  0.69256039    -0.17900
C176        C  0.05548179  0.36756521  0.66559383    -0.20100
C177        C  0.02713634  0.36098161  0.64022936     0.20600
C178        C  0.49883638  0.38290316  0.64235840    -0.03000
C179        C  0.49936217  0.41148077  0.66950712    -0.06000
C180        C  0.02802114  0.41795225  0.69467665     0.20900
C181        C  0.47147125  0.43386388  0.67091601     0.19000
C182        C  0.44313525  0.42736658  0.64551623    -0.17500
C183        C  0.44243511  0.39887156  0.61889956    -0.19700
C184        C  0.47017553  0.37654873  0.61702265     0.20500
C185        C  0.46997111  0.34833856  0.58980513    -0.32800
C186        C  0.49834460  0.32678789  0.58692138     0.01200
C187        C  0.02679127  0.33320336  0.61236940    -0.24100
C188        C  0.02847944  0.44649284  0.72139050    -0.28700
C189        C  0.50009568  0.46845132  0.72459237     0.06900
C190        C  0.47230136  0.46232319  0.69770391    -0.27300
H191        H  0.07816583  0.40039690  0.71173957     0.11600
H192        H  0.07739850  0.35096906  0.66442037     0.12700
H193        H  0.42146615  0.44431082  0.64627288     0.11800
H194        H  0.42027692  0.39442927  0.59957047     0.11100
H195        H  0.44809785  0.34375473  0.57002549     0.16400
H196        H  0.04870509  0.31662908  0.61039985     0.12400
H197        H  0.05152193  0.45161633  0.73877982     0.15200
H198        H  0.45085045  0.47958254  0.69840792     0.15000
C199        C  0.05404481  0.09841552  0.61453647    -0.17900
C200        C  0.05373648  0.07061505  0.64202703    -0.20100
C201        C  0.02620998  0.06535334  0.66891423     0.20600
C202        C  0.49866479  0.08817291  0.66798589    -0.03000
C203        C  0.99880404  0.11608778  0.63999591    -0.06000
C204        C  0.02674572  0.12131251  0.61333375     0.20900
C205        C  0.47092680  0.13860286  0.63854142     0.19000
C206        C  0.44334932  0.13317805  0.66531089    -0.17500
C207        C  0.44327106  0.10555300  0.69307760    -0.19700
C208        C  0.47077293  0.08286054  0.69458934     0.20500
C209        C  0.47060029  0.05482847  0.72200163    -0.32800
C210        C  0.49859400  0.03230985  0.72449749     0.01200
C211        C  0.02581586  0.03762834  0.69662738    -0.24100
C212        C  0.02684149  0.14921920  0.58581853    -0.28700
C213        C  0.49907371  0.17162340  0.58398466     0.06900
C214        C  0.47108813  0.16603070  0.61027193    -0.27300
H215        H  0.07562200  0.10196813  0.59414954     0.11600
H216        H  0.07509355  0.05326109  0.64232384     0.12700
H217        H  0.42178430  0.15025680  0.66471333     0.11800
H218        H  0.42163740  0.10191053  0.71336526     0.11100
H219        H  0.44802828  0.05049558  0.74039699     0.16400
H220        H  0.04704163  0.02008246  0.69695691     0.12400
H221        H  0.04829430  0.15315021  0.56528893     0.15200
H222        H  0.44963373  0.18325496  0.60901795     0.15000
O223        O  0.47155670  0.78652493  0.45550312    -0.73000
O224        O  0.47095380  0.71186940  0.54075757    -0.74000
O225        O  0.47063074  0.78617414  0.54157557    -0.62600
O226        O  0.47233990  0.71301972  0.45380933    -0.71000
O227        O  0.02907559  0.71521472  0.45541686    -0.70600
O228        O  0.02732665  0.78745486  0.54342782    -0.61800
O229        O  0.02767964  0.71327740  0.54119743    -0.74300
O230        O  0.02838299  0.78895762  0.45669646    -0.73100
Cu231      Cu  0.46938284  0.74927866  0.49793807     1.04600
Cu232      Cu  0.03009106  0.75131604  0.49927934     1.04300
C233        C  0.99996505  0.79946572  0.44280336     0.93200
C234        C  0.49920608  0.70039375  0.55405533     0.92300
C235        C  0.49876112  0.79864906  0.55606345     0.84500
C236        C  0.00111077  0.70273325  0.44066065     0.90800
C237        C  0.49970462  0.00025323  0.24677105    -0.02500
C238        C  0.49941763  0.00043181  0.75363635    -0.02500
O239        O  0.28578264  0.96929048  0.04216251    -0.73000
O240        O  0.21039005  0.97150261  0.96008463    -0.74000
O241        O  0.28327160  0.97014426  0.95630623    -0.62600
O242        O  0.21334225  0.97112037  0.04626685    -0.71000
O243        O  0.21440132  0.52890640  0.04398238    -0.70600
O244        O  0.28752296  0.52784985  0.95916979    -0.61800
O245        O  0.21468109  0.52919630  0.95789522    -0.74300
O246        O  0.28694261  0.52718844  0.04501839    -0.73100
Cu247      Cu  0.24804315  0.96848434  0.00112398     1.04600
Cu248      Cu  0.25094231  0.53030721  0.00149496     1.04300
C249        C  0.29822254  0.49787066  0.05644360     0.93200
C250        C  0.20048215  0.50052722  0.94604586     0.92300
C251        C  0.29741293  0.49892084  0.94472888     0.84500
C252        C  0.20243627  0.50033578  0.05876625     0.90800
C253        C  0.09664770  0.94432493  0.88791352    -0.17900
C254        C  0.06840170  0.94487903  0.86187844    -0.20100
C255        C  0.06352599  0.97346104  0.83616038     0.20600
C256        C  0.08714899  0.50183863  0.83679117    -0.03000
C257        C  0.11553210  0.50143168  0.86331086    -0.06000
C258        C  0.12033464  0.97244066  0.88881011     0.20900
C259        C  0.13898139  0.53005459  0.86441763     0.19000
C260        C  0.13393644  0.55867740  0.83879279    -0.17500
C261        C  0.10581824  0.55902382  0.81244755    -0.19700
C262        C  0.08229131  0.53072454  0.81121661     0.20500
C263        C  0.05404001  0.53091759  0.78487879    -0.32800
C264        C  0.03086258  0.00195798  0.78248775     0.01200
C265        C  0.03553506  0.97395324  0.80967389    -0.24100
C266        C  0.14852087  0.47219533  0.91510921    -0.28700
C267        C  0.17179543  0.50075403  0.91676165     0.06900
C268        C  0.16685577  0.52963945  0.89135255    -0.27300
H269        H  0.09992115  0.92192921  0.90743763     0.11600
H270        H  0.05043614  0.92287421  0.86173078     0.12700
H271        H  0.15170076  0.58084843  0.83919274     0.11800
H272        H  0.10250036  0.58143723  0.79296848     0.11100
H273        H  0.05025059  0.55405665  0.76695793     0.16400
H274        H  0.01750192  0.95198178  0.80936270     0.12400
H275        H  0.15203905  0.94994490  0.93479769     0.15200
H276        H  0.18474893  0.55170885  0.89245718     0.15000
C277        C  0.40171476  0.55564313  0.88849722    -0.17900
C278        C  0.43023473  0.55524892  0.86287473    -0.20100
C279        C  0.43557828  0.52666087  0.83720614     0.20600
C280        C  0.41241612  0.99787533  0.83799641    -0.03000
C281        C  0.38377553  0.99810101  0.86411408    -0.06000
C282        C  0.37821756  0.52734126  0.88908406     0.20900
C283        C  0.36078288  0.96909593  0.86528682     0.19000
C284        C  0.36682656  0.94005065  0.84060534    -0.17500
C285        C  0.39518698  0.93987979  0.81468672    -0.19700
C286        C  0.41794398  0.96879395  0.81290392     0.20500
C287        C  0.44595764  0.96909295  0.78627421    -0.32800
C288        C  0.46825495  0.99869304  0.78300445     0.01200
C289        C  0.46344871  0.52659734  0.81043860    -0.24100
C290        C  0.34942653  0.52765509  0.91441871    -0.28700
C291        C  0.32636617  0.49887490  0.91579955     0.06900
C292        C  0.33231383  0.96957914  0.89127518    -0.27300
H293        H  0.39798049  0.57814648  0.90778335     0.11600
H294        H  0.44791545  0.57748982  0.86279876     0.12700
H295        H  0.34954390  0.91749921  0.84123313     0.11800
H296        H  0.39915227  0.91721756  0.79573682     0.11100
H297        H  0.45026155  0.94577494  0.76879861     0.16400
H298        H  0.48117169  0.54882675  0.81000376     0.12400
H299        H  0.34539621  0.55006237  0.93379438     0.15200
H300        H  0.31478912  0.94721466  0.89240109     0.15000
C301        C  0.13869863  0.94803020  0.17481867    -0.17900
C302        C  0.11118309  0.94849026  0.20203486    -0.20100
C303        C  0.08767516  0.97544155  0.20059067     0.20600
C304        C  0.09256130  0.50267142  0.17228268    -0.03000
C305        C  0.12069685  0.50263924  0.14545868    -0.06000
C306        C  0.14351853  0.97483058  0.14618218     0.20900
C307        C  0.12561636  0.53016297  0.11744760     0.19000
C308        C  0.10264422  0.55753170  0.11666806    -0.17500
C309        C  0.07452475  0.55726722  0.14283378    -0.19700
C310        C  0.06915346  0.52979826  0.17041052     0.20500
C311        C  0.04023532  0.52861041  0.19531293    -0.32800
C312        C  0.03375631  0.00061268  0.22242125     0.01200
C313        C  0.05906409  0.97519761  0.22639091    -0.24100
C314        C  0.17041035  0.97414619  0.11790338    -0.28700
C315        C  0.17514804  0.50136410  0.08967629     0.06900
C316        C  0.15303905  0.52955685  0.09017166    -0.27300
H317        H  0.15608989  0.92658756  0.17600052     0.11600
H318        H  0.10787242  0.92735332  0.22363352     0.12700
H319        H  0.10612148  0.57886724  0.09536510     0.11800
H320        H  0.05676695  0.57836858  0.14119890     0.11100
H321        H  0.02179040  0.54904294  0.19269346     0.16400
H322        H  0.05692103  0.95491672  0.24900856     0.12400
H323        H  0.18765277  0.95253132  0.11786234     0.15200
H324        H  0.15651899  0.55053931  0.06835766     0.15000
C325        C  0.42073234  0.48485564  0.08054851    -0.17900
C326        C  0.44871245  0.48439517  0.10695262    -0.20100
C327        C  0.44419261  0.48916909  0.14899522     0.20600
C328        C  0.41119151  0.49381477  0.16473385    -0.03000
C329        C  0.38291161  0.49442977  0.13808911    -0.06000
C330        C  0.38781239  0.49005920  0.09577890     0.20900
C331        C  0.34982170  0.99962801  0.15370029     0.19000
C332        C  0.34529777  0.00334770  0.19588206    -0.17500
C333        C  0.37335386  0.00229043  0.22233342    -0.19700
C334        C  0.40644285  0.99784377  0.20701498     0.20500
C335        C  0.43492206  0.99816217  0.23310554    -0.32800
C336        C  0.46854273  0.99672452  0.21748901     0.01200
C337        C  0.47231147  0.48990516  0.17530455    -0.24100
C338        C  0.35971623  0.49107640  0.06945741    -0.28700
C339        C  0.32698204  0.49685918  0.08481557     0.06900
C340        C  0.32196793  0.00107345  0.12679627    -0.27300
H341        H  0.42487761  0.48139055  0.04816956     0.11600
H342        H  0.47396450  0.48070396  0.09442629     0.12700
H343        H  0.32007362  0.00719182  0.20840740     0.11800
H344        H  0.36922685  0.00544946  0.25474685     0.11100
H345        H  0.43116182  0.00129477  0.26560829     0.16400
H346        H  0.49702483  0.48500604  0.16220157     0.12400
H347        H  0.36325669  0.48770519  0.03691759     0.15200
H348        H  0.29645981  0.00523541  0.13837251     0.15000
C349        C  0.48859993  0.92361480  0.41515142    -0.17900
C350        C  0.48701604  0.95139529  0.38794694    -0.20100
C351        C  0.49012868  0.94570896  0.34589911     0.20600
C352        C  0.99397889  0.91168822  0.33091753    -0.03000
C353        C  0.99549981  0.88354673  0.35837478    -0.06000
C354        C  0.49310190  0.88970611  0.40069862     0.20900
C355        C  0.99959791  0.84936351  0.34357208     0.19000
C356        C  0.00139202  0.84366884  0.30135592    -0.17500
C357        C  0.99970143  0.87166094  0.27411129    -0.19700
C358        C  0.99637123  0.90583810  0.28862743     0.20500
C359        C  0.99637698  0.93435147  0.26178081    -0.32800
C360        C  0.49594787  0.96898006  0.27664731     0.01200
C361        C  0.49019592  0.97372992  0.31885535    -0.24100
C362        C  0.49513969  0.86186345  0.42788491    -0.28700
C363        C  0.49958251  0.82802071  0.41340746     0.06900
C364        C  0.00171019  0.82165060  0.37135117    -0.27300
H365        H  0.48652720  0.92868156  0.44752346     0.11600
H366        H  0.48391830  0.97745481  0.39986736     0.12700
H367        H  0.00431250  0.81759861  0.28941708     0.11800
H368        H  0.00151171  0.86663502  0.24171014     0.11100
H369        H  0.99861271  0.92983361  0.22929885     0.16400
H370        H  0.48588052  0.99922077  0.33149426     0.13200
H371        H  0.49311719  0.86639935  0.46041529     0.15200
H372        H  0.00467242  0.79524038  0.36043084     0.15000
C373        C  0.05828391  0.60382658  0.37744041    -0.17900
C374        C  0.05801221  0.57587759  0.35014074    -0.20100
C375        C  0.03076602  0.57081272  0.32276743     0.20600
C376        C  0.50404231  0.59458309  0.32199627    -0.03000
C377        C  0.50399528  0.62248208  0.34999725    -0.06000
C378        C  0.03113475  0.62689403  0.37804180     0.20900
C379        C  0.47645306  0.64543455  0.35054545     0.19000
C380        C  0.45009203  0.64126497  0.32177833    -0.17500
C381        C  0.45057165  0.61404126  0.29338498    -0.19700
C382        C  0.47708836  0.59014100  0.29378682     0.20500
C383        C  0.47653657  0.56138001  0.26729072    -0.32800
C384        C  0.50122836  0.53529447  0.27066071     0.01200
C385        C  0.02923405  0.54164992  0.29725003    -0.24100
C386        C  0.03032123  0.65382367  0.40676756    -0.28700
C387        C  0.50230865  0.67585561  0.40862148     0.06900
C388        C  0.47556680  0.67175280  0.38023098    -0.27300
H389        H  0.07937799  0.60697360  0.39865917     0.11600
H390        H  0.07885392  0.55790029  0.35087359     0.12700
H391        H  0.42891775  0.65884897  0.32149911     0.11800
H392        H  0.42969842  0.61112152  0.27182736     0.11100
H393        H  0.45637978  0.55952842  0.24490144     0.16400
H394        H  0.04918524  0.52270147  0.29934309     0.12400
H395        H  0.05099576  0.65692176  0.42860960     0.15200
H396        H  0.45416852  0.68906788  0.38122198     0.15000
C397        C  0.05600250  0.89593029  0.69237247    -0.17900
C398        C  0.05555109  0.86767915  0.66539879    -0.20100
C399        C  0.02716475  0.86104385  0.64011505     0.20600
C400        C  0.49882802  0.88291057  0.64232835    -0.03000
C401        C  0.49935522  0.91148332  0.66948314    -0.06000
C402        C  0.02805277  0.91800406  0.69457612     0.20900
C403        C  0.47142492  0.93381219  0.67097517     0.19000
C404        C  0.44304876  0.92726468  0.64565427    -0.17500
C405        C  0.44234759  0.89877297  0.61903327    -0.19700
C406        C  0.47012681  0.87650488  0.61707244     0.20500
C407        C  0.46991892  0.84829812  0.58985076    -0.32800
C408        C  0.49832523  0.82679930  0.58688650     0.01200
C409        C  0.02681271  0.83326661  0.61225459    -0.24100
C410        C  0.02850863  0.94653638  0.72130177    -0.28700
C411        C  0.50008985  0.96843852  0.72458564     0.06900
C412        C  0.47225691  0.96226847  0.69776613    -0.27300
H413        H  0.07826735  0.90054561  0.71148985     0.11600
H414        H  0.07749733  0.85112628  0.66415817     0.12700
H415        H  0.42134888  0.94416649  0.64647687     0.11800
H416        H  0.42015763  0.89429039  0.59976665     0.11100
H417        H  0.44801269  0.84367499  0.57013363     0.16400
H418        H  0.04875308  0.81673354  0.61022317     0.12400
H419        H  0.05157461  0.95170375  0.73863323     0.15200
H420        H  0.45077824  0.97949064  0.69852864     0.15000
C421        C  0.05395035  0.59832636  0.61437366    -0.17900
C422        C  0.05365115  0.57053386  0.64187587    -0.20100
C423        C  0.02617567  0.56533299  0.66885075     0.20600
C424        C  0.49867313  0.58820762  0.66799984    -0.03000
C425        C  0.99880489  0.61611821  0.64000368    -0.06000
C426        C  0.02669467  0.62127953  0.61325056     0.20900
C427        C  0.47097074  0.63869215  0.63863345     0.19000
C428        C  0.44344645  0.63333217  0.66549491    -0.17500
C429        C  0.44337368  0.60570872  0.69326324    -0.19700
C430        C  0.47082922  0.58295435  0.69468679     0.20500
C431        C  0.47065364  0.55491678  0.72209105    -0.32800
C432        C  0.49860564  0.53233768  0.72450682     0.01200
C433        C  0.02578873  0.53761287  0.69657231    -0.24100
C434        C  0.02678202  0.64918031  0.58572641    -0.28700
C435        C  0.49905451  0.67164014  0.58397478     0.06900
C436        C  0.47112030  0.66611223  0.61035400    -0.27300
H437        H  0.07548680  0.60182942  0.59391631     0.11600
H438        H  0.07497422  0.55313640  0.64211024     0.12700
H439        H  0.42191675  0.65045816  0.66496515     0.11800
H440        H  0.42177916  0.60211449  0.71361948     0.11100
H441        H  0.44810908  0.55063327  0.74054534     0.16400
H442        H  0.04698521  0.52002994  0.69684849     0.12400
H443        H  0.04819389  0.65306391  0.56512600     0.15200
H444        H  0.44969877  0.68338172  0.60916359     0.15000
O445        O  0.97162913  0.28652189  0.45551454    -0.73000
O446        O  0.97099091  0.21186203  0.54076030    -0.74000
O447        O  0.97066880  0.28616867  0.54158862    -0.62600
O448        O  0.97241010  0.21302462  0.45381510    -0.71000
O449        O  0.52914511  0.21521598  0.45544681    -0.70600
O450        O  0.52736427  0.28744559  0.54347683    -0.61800
O451        O  0.52771598  0.21326903  0.54123151    -0.74300
O452        O  0.52845503  0.28895735  0.45674060    -0.73100
Cu453      Cu  0.96943776  0.24927606  0.49794623     1.04600
Cu454      Cu  0.53014540  0.25131176  0.49932043     1.04300
C455        C  0.50004210  0.29946120  0.44282796     0.93200
C456        C  0.99923749  0.20038338  0.55407152     0.92300
C457        C  0.99879338  0.29863981  0.55609638     0.84500
C458        C  0.50118377  0.20274227  0.44067181     0.90800
C459        C  0.99970507  0.50022905  0.24677611    -0.02500
C460        C  0.99942236  0.50045094  0.75363891    -0.02500
O461        O  0.78578937  0.46930885  0.04217456    -0.73000
O462        O  0.71039970  0.47149195  0.96009038    -0.74000
O463        O  0.78328236  0.47015814  0.95631527    -0.62600
O464        O  0.71334784  0.47111766  0.04627036    -0.71000
O465        O  0.71441231  0.02890937  0.04398733    -0.70600
O466        O  0.78751774  0.02783547  0.95915382    -0.61800
O467        O  0.71467573  0.02920652  0.95790043    -0.74300
O468        O  0.78695243  0.02717016  0.04500416    -0.73100
Cu469      Cu  0.74805244  0.46848877  0.00113210     1.04600
Cu470      Cu  0.75094560  0.03030230  0.00148986     1.04300
C471        C  0.79822513  0.99784915  0.05642908     0.93200
C472        C  0.70047279  0.00054079  0.94604708     0.92300
C473        C  0.79740585  0.99890418  0.94471629     0.84500
C474        C  0.70244123  0.00034060  0.05876973     0.90800
C475        C  0.59655363  0.44439739  0.88806072    -0.17900
C476        C  0.56830810  0.44495856  0.86202442    -0.20100
C477        C  0.56348544  0.47350275  0.83623168     0.20600
C478        C  0.58713668  0.00184142  0.83679256    -0.03000
C479        C  0.61551872  0.00144194  0.86331390    -0.06000
C480        C  0.62029451  0.47246802  0.88888250     0.20900
C481        C  0.63891260  0.03010909  0.86449884     0.19000
C482        C  0.63381189  0.05877078  0.83895123    -0.17500
C483        C  0.60569520  0.05910941  0.81260255    -0.19700
C484        C  0.58222533  0.03076401  0.81129177     0.20500
C485        C  0.55397747  0.03094638  0.78494805    -0.32800
C486        C  0.53086901  0.50197045  0.78249206     0.01200
C487        C  0.53549643  0.47399996  0.80974128    -0.24100
C488        C  0.64856018  0.97217373  0.91503692    -0.28700
C489        C  0.67178296  0.00077258  0.91676508     0.06900
C490        C  0.66678855  0.02969674  0.89143255    -0.27300
H491        H  0.59978499  0.42203149  0.90764345     0.11600
H492        H  0.55030101  0.42298852  0.86193476     0.12700
H493        H  0.65153211  0.08097715  0.83941293     0.11800
H494        H  0.60233432  0.08155248  0.79318279     0.11100
H495        H  0.55014027  0.05410950  0.76708544     0.16400
H496        H  0.51742715  0.45205855  0.80947927     0.12400
H497        H  0.65196072  0.44999723  0.93492869     0.15200
H498        H  0.68463953  0.05179893  0.89259560     0.15000
C499        C  0.90161585  0.05570144  0.88834160    -0.17900
C500        C  0.93014190  0.05530673  0.86272921    -0.20100
C501        C  0.93554186  0.02667581  0.83714630     0.20600
C502        C  0.91239836  0.49790364  0.83797491    -0.03000
C503        C  0.88376161  0.49812944  0.86409877    -0.06000
C504        C  0.87817104  0.02735642  0.88900708     0.20900
C505        C  0.86071360  0.46916656  0.86518767     0.19000
C506        C  0.86669394  0.44016554  0.84041036    -0.17500
C507        C  0.89505197  0.43999359  0.81448865    -0.19700
C508        C  0.91786932  0.46886337  0.81279715     0.20500
C509        C  0.94589003  0.46915598  0.78617849    -0.32800
C510        C  0.96824896  0.49871631  0.78299595     0.01200
C511        C  0.96341270  0.02661215  0.81038010    -0.24100
C512        C  0.84937284  0.02767139  0.91432966    -0.28700
C513        C  0.82636354  0.99885203  0.91579058     0.06900
C514        C  0.83225399  0.46964557  0.89119046    -0.27300
H515        H  0.89783530  0.07823908  0.90755742     0.11600
H516        H  0.94778072  0.07758144  0.86258996     0.12700
H517        H  0.84936603  0.41764819  0.84096947     0.11800
H518        H  0.89897053  0.41736449  0.79546825     0.11100
H519        H  0.95014656  0.44586116  0.76864335     0.16400
H520        H  0.98109750  0.04887167  0.80988686     0.12400
H521        H  0.84529751  0.05011401  0.93363320     0.15200
H522        H  0.81468612  0.44731328  0.89225273     0.15000
C523        C  0.63869204  0.44801181  0.17480358    -0.17900
C524        C  0.61117934  0.44847068  0.20202357    -0.20100
C525        C  0.58767297  0.47542359  0.20058668     0.20600
C526        C  0.59256500  0.00268688  0.17228383    -0.03000
C527        C  0.62070377  0.00265402  0.14546448    -0.06000
C528        C  0.64351045  0.47481476  0.14617025     0.20900
C529        C  0.62562496  0.03017574  0.11745112     0.19000
C530        C  0.60265215  0.05754371  0.11666558    -0.17500
C531        C  0.57452924  0.05727945  0.14282592    -0.19700
C532        C  0.56915557  0.02981195  0.17040392     0.20500
C533        C  0.54023422  0.02862453  0.19530095    -0.32800
C534        C  0.53375733  0.50059456  0.22242798     0.01200
C535        C  0.55906442  0.47517823  0.22639069    -0.24100
C536        C  0.67040127  0.47413300  0.11789050    -0.28700
C537        C  0.67515678  0.00137399  0.08968454     0.06900
C538        C  0.65304890  0.02956756  0.09017712    -0.27300
H539        H  0.65608263  0.42656837  0.17598046     0.11600
H540        H  0.60786973  0.42733175  0.22361980     0.12700
H541        H  0.60613098  0.07887786  0.09536109     0.11800
H542        H  0.55677062  0.07837979  0.14118573     0.11100
H543        H  0.52178864  0.04905592  0.19267627     0.16400
H544        H  0.55692191  0.45489405  0.24900431     0.12400
H545        H  0.68764410  0.45251845  0.11784681     0.15200
H546        H  0.65652924  0.05054781  0.06836037     0.15000
C547        C  0.92073059  0.98480148  0.08055021    -0.17900
C548        C  0.94871063  0.98435535  0.10695573    -0.20100
C549        C  0.94419131  0.98915721  0.14899415     0.20600
C550        C  0.91119055  0.99381428  0.16472779    -0.03000
C551        C  0.88291092  0.99441625  0.13808129    -0.06000
C552        C  0.88781125  0.99001935  0.09577469     0.20900
C553        C  0.84982157  0.49962570  0.15371389     0.19000
C554        C  0.84529782  0.50332101  0.19589874    -0.17500
C555        C  0.87335475  0.50225348  0.22234780    -0.19700
C556        C  0.90644398  0.49781896  0.20702436     0.20500
C557        C  0.93492346  0.49812570  0.23311360    -0.32800
C558        C  0.96854393  0.49669893  0.21749411     0.01200
C559        C  0.97231030  0.98990910  0.17530382    -0.24100
C560        C  0.85971570  0.99102833  0.06945079    -0.28700
C561        C  0.82698325  0.99683114  0.08480284     0.06900
C562        C  0.82196635  0.50107754  0.12681249    -0.27300
H563        H  0.92487575  0.98131588  0.04817426     0.11600
H564        H  0.97396230  0.98065383  0.09443340     0.12700
H565        H  0.82007316  0.50715339  0.20842834     0.11800
H566        H  0.86922798  0.50539362  0.25476387     0.11100
H567        H  0.93116386  0.50124415  0.26561836     0.16400
H568        H  0.99702353  0.98500144  0.16220539     0.12400
H569        H  0.86325606  0.98763956  0.03691349     0.15200
H570        H  0.79645684  0.50522386  0.13839324     0.15000
C571        C  0.98868055  0.42360254  0.41516312    -0.17900
C572        C  0.98707181  0.45137800  0.38795584    -0.20100
C573        C  0.99016227  0.44568677  0.34590673     0.20600
C574        C  0.49401287  0.41166580  0.33092647    -0.03000
C575        C  0.49555316  0.38352822  0.35838660    -0.06000
C576        C  0.99318083  0.38969363  0.40071155     0.20900
C577        C  0.49964323  0.34934323  0.34358601     0.19000
C578        C  0.50141341  0.34364366  0.30136874    -0.17500
C579        C  0.49970962  0.37163326  0.27412127    -0.19700
C580        C  0.49638593  0.40581218  0.28863526     0.20500
C581        C  0.49638100  0.43432452  0.26178612    -0.32800
C582        C  0.99595267  0.46895417  0.27665142     0.01200
C583        C  0.99020893  0.47370430  0.31886057    -0.24100
C584        C  0.99523770  0.36185629  0.42790100    -0.28700
C585        C  0.99966737  0.32801142  0.41342631     0.06900
C586        C  0.50176861  0.32163387  0.37136884    -0.27300
H587        H  0.98662636  0.42867314  0.44753618     0.11600
H588        H  0.98397450  0.47743804  0.39987484     0.12700
H589        H  0.50432680  0.31757200  0.28943123     0.11800
H590        H  0.50150379  0.36660398  0.24171943     0.11100
H591        H  0.49860820  0.42980553  0.22930350     0.16400
H592        H  0.98588775  0.49919354  0.33150015     0.13200
H593        H  0.99323237  0.36639697  0.46043217     0.15200
H594        H  0.50471849  0.29522113  0.36045099     0.15000
C595        C  0.55834664  0.10385328  0.37739403    -0.17900
C596        C  0.55805838  0.07590038  0.35009936    -0.20100
C597        C  0.53080019  0.07083696  0.32274256     0.20600
C598        C  0.00408374  0.09461508  0.32197820    -0.03000
C599        C  0.00405255  0.12251709  0.34997583    -0.06000
C600        C  0.53120140  0.12692513  0.37800841     0.20900
C601        C  0.97651421  0.14547351  0.35053666     0.19000
C602        C  0.95014366  0.14130849  0.32178092    -0.17500
C603        C  0.95060833  0.11408263  0.29338928    -0.19700
C604        C  0.97711913  0.09017548  0.29378218     0.20500
C605        C  0.97655134  0.06141029  0.26729112    -0.32800
C606        C  0.00123743  0.03531865  0.27065519     0.01200
C607        C  0.52924983  0.04166826  0.29723569    -0.24100
C608        C  0.53039798  0.15385110  0.40674049    -0.28700
C609        C  0.00238500  0.17588097  0.40861371     0.06900
C610        C  0.97563809  0.17178721  0.38022795    -0.27300
H611        H  0.57944860  0.10699757  0.39860212     0.11600
H612        H  0.57889601  0.05791800  0.35082471     0.12700
H613        H  0.92897230  0.15889620  0.32151130     0.11800
H614        H  0.92972736  0.11116567  0.27184189     0.11100
H615        H  0.95638737  0.05956051  0.24491090     0.16400
H616        H  0.54919560  0.02271376  0.29932595     0.12400
H617        H  0.55107761  0.15694375  0.42857645     0.15200
H618        H  0.95424015  0.18910223  0.38123163     0.15000
C619        C  0.55593209  0.39582180  0.69255984    -0.17900
C620        C  0.55548211  0.36756557  0.66559326    -0.20100
C621        C  0.52713657  0.36098186  0.64022897     0.20600
C622        C  0.99883625  0.38290306  0.64235857    -0.03000
C623        C  0.99936204  0.41148068  0.66950725    -0.06000
C624        C  0.52802135  0.41795246  0.69467635     0.20900
C625        C  0.97147119  0.43386388  0.67091601     0.19000
C626        C  0.94313521  0.42736659  0.64551616    -0.17500
C627        C  0.94243513  0.39887163  0.61889943    -0.19700
C628        C  0.97017548  0.37654873  0.61702264     0.20500
C629        C  0.96997109  0.34833860  0.58980510    -0.32800
C630        C  0.99834449  0.32678780  0.58692153     0.01200
C631        C  0.52679148  0.33320363  0.61236902    -0.24100
C632        C  0.52847960  0.44649305  0.72139021    -0.28700
C633        C  0.00009566  0.46845130  0.72459242     0.06900
C634        C  0.97230137  0.46232323  0.69770386    -0.27300
H635        H  0.57816625  0.40039736  0.71173884     0.11600
H636        H  0.57739890  0.35096950  0.66441963     0.12700
H637        H  0.92146611  0.44431083  0.64627274     0.11800
H638        H  0.92027702  0.39442939  0.59957017     0.11100
H639        H  0.94809790  0.34375488  0.57002530     0.16400
H640        H  0.54870537  0.31662945  0.61039931     0.12400
H641        H  0.55152216  0.45161671  0.73877936     0.15200
H642        H  0.95085052  0.47958266  0.69840776     0.15000
C643        C  0.55404531  0.09841628  0.61453760    -0.17900
C644        C  0.55373697  0.07061580  0.64202813    -0.20100
C645        C  0.52621012  0.06535364  0.66891472     0.20600
C646        C  0.99866498  0.08817306  0.66798597    -0.03000
C647        C  0.49880386  0.11608764  0.63999585    -0.06000
C648        C  0.52674587  0.12131282  0.61333428     0.20900
C649        C  0.97092724  0.13860337  0.63854197     0.19000
C650        C  0.94335005  0.13317897  0.66531196    -0.17500
C651        C  0.94327179  0.10555393  0.69307868    -0.19700
C652        C  0.97077337  0.08286106  0.69458989     0.20500
C653        C  0.97060064  0.05482894  0.72200210    -0.32800
C654        C  0.99859406  0.03230988  0.72449743     0.01200
C655        C  0.52581608  0.03762868  0.69662791    -0.24100
C656        C  0.52684165  0.14921953  0.58581907    -0.28700
C657        C  0.99907381  0.17162343  0.58398462     0.06900
C658        C  0.97108852  0.16603114  0.61027242    -0.27300
H659        H  0.57562277  0.10196924  0.59415115     0.11600
H660        H  0.57509431  0.05326221  0.64232543     0.12700
H661        H  0.92178527  0.15025803  0.66471479     0.11800
H662        H  0.92163835  0.10191175  0.71336675     0.11100
H663        H  0.94802882  0.05049642  0.74039785     0.16400
H664        H  0.54704212  0.02008317  0.69695784     0.12400
H665        H  0.54829469  0.15315083  0.56528989     0.15200
H666        H  0.94963431  0.18325568  0.60901880     0.15000
O667        O  0.97155684  0.78652493  0.45550312    -0.73000
O668        O  0.97095386  0.71186929  0.54075750    -0.74000
O669        O  0.97063073  0.78617409  0.54157550    -0.62600
O670        O  0.97234010  0.71301973  0.45380931    -0.71000
O671        O  0.52907539  0.71521472  0.45541672    -0.70600
O672        O  0.52732667  0.78745500  0.54342765    -0.61800
O673        O  0.52767957  0.71327743  0.54119739    -0.74300
O674        O  0.52838286  0.78895762  0.45669641    -0.73100
Cu675      Cu  0.96938294  0.74927862  0.49793804     1.04600
Cu676      Cu  0.53009097  0.75131607  0.49927923     1.04300
C677        C  0.49996491  0.79946572  0.44280334     0.93200
C678        C  0.99920616  0.70039366  0.55405527     0.92300
C679        C  0.99876108  0.79864894  0.55606351     0.84500
C680        C  0.50111054  0.70273321  0.44066062     0.90800
C681        C  0.99970471  0.00025324  0.24677108    -0.02500
C682        C  0.99941765  0.00043184  0.75363632    -0.02500
O683        O  0.78578273  0.96929033  0.04216249    -0.73000
O684        O  0.71039006  0.97150262  0.96008464    -0.74000
O685        O  0.78327161  0.97014427  0.95630622    -0.62600
O686        O  0.71334224  0.97112024  0.04626682    -0.71000
O687        O  0.71440127  0.52890642  0.04398239    -0.70600
O688        O  0.78752301  0.52785004  0.95916983    -0.61800
O689        O  0.71468107  0.52919638  0.95789524    -0.74300
O690        O  0.78694271  0.52718854  0.04501841    -0.73100
Cu691      Cu  0.74804317  0.96848428  0.00112397     1.04600
Cu692      Cu  0.75094235  0.53030736  0.00149498     1.04300
C693        C  0.79822260  0.49787074  0.05644365     0.93200
C694        C  0.70048214  0.50052728  0.94604590     0.92300
C695        C  0.79741295  0.49892102  0.94472888     0.84500
C696        C  0.70243618  0.50033578  0.05876619     0.90800
C697        C  0.59664861  0.94432426  0.88791212    -0.17900
C698        C  0.56840252  0.94487837  0.86187715    -0.20100
C699        C  0.56352631  0.97346078  0.83615986     0.20600
C700        C  0.58714895  0.50183867  0.83679114    -0.03000
C701        C  0.61553207  0.50143170  0.86331082    -0.06000
C702        C  0.62033504  0.97244040  0.88880946     0.20900
C703        C  0.63898120  0.53005473  0.86441785     0.19000
C704        C  0.63393605  0.55867771  0.83879328    -0.17500
C705        C  0.60581790  0.55902407  0.81244794    -0.19700
C706        C  0.58229113  0.53072468  0.81121674     0.20500
C707        C  0.55403984  0.53091769  0.78487887    -0.32800
C708        C  0.53086253  0.00195798  0.78248780     0.01200
C709        C  0.53553533  0.97395299  0.80967347    -0.24100
C710        C  0.64852100  0.47219524  0.91510897    -0.28700
C711        C  0.67179542  0.50075404  0.91676165     0.06900
C712        C  0.66685560  0.52963957  0.89135274    -0.27300
H713        H  0.59992249  0.92192823  0.90743560     0.11600
H714        H  0.55043731  0.92287330  0.86172902     0.12700
H715        H  0.65170018  0.58084885  0.83919344     0.11800
H716        H  0.60249993  0.58143756  0.79296898     0.11100
H717        H  0.55025036  0.55405678  0.76695807     0.16400
H718        H  0.51750243  0.95198132  0.80936193     0.12400
H719        H  0.65203981  0.94994435  0.93479649     0.15200
H720        H  0.68474864  0.55170905  0.89245755     0.15000
C721        C  0.90171501  0.55564303  0.88849766    -0.17900
C722        C  0.93023501  0.55524876  0.86287522    -0.20100
C723        C  0.93557843  0.52666087  0.83720637     0.20600
C724        C  0.91241608  0.99787543  0.83799636    -0.03000
C725        C  0.88377554  0.99810110  0.86411409    -0.06000
C726        C  0.87821770  0.52734126  0.88908431     0.20900
C727        C  0.86078248  0.96909632  0.86528619     0.19000
C728        C  0.86682571  0.94005137  0.84060400    -0.17500
C729        C  0.89518616  0.93988047  0.81468544    -0.19700
C730        C  0.91794355  0.96879435  0.81290329     0.20500
C731        C  0.94595722  0.96909333  0.78627362    -0.32800
C732        C  0.96825492  0.99869317  0.78300440     0.01200
C733        C  0.96344883  0.52659738  0.81043877    -0.24100
C734        C  0.84942666  0.52765513  0.91441894    -0.28700
C735        C  0.82636616  0.49887507  0.91579955     0.06900
C736        C  0.83231345  0.96957952  0.89127459    -0.27300
H737        H  0.89798082  0.57814629  0.90778390     0.11600
H738        H  0.94791587  0.57748959  0.86279948     0.12700
H739        H  0.84954266  0.91750020  0.84123119     0.11800
H740        H  0.89915116  0.91721848  0.79573503     0.11100
H741        H  0.95026080  0.94577549  0.76879762     0.16400
H742        H  0.98117189  0.54882674  0.81000402     0.12400
H743        H  0.84539646  0.55006233  0.93379477     0.15200
H744        H  0.81478841  0.94721528  0.89239998     0.15000
C745        C  0.63869862  0.94803015  0.17481877    -0.17900
C746        C  0.61118304  0.94849022  0.20203491    -0.20100
C747        C  0.58767510  0.97544149  0.20059067     0.20600
C748        C  0.59256110  0.50267135  0.17228255    -0.03000
C749        C  0.62069664  0.50263916  0.14545852    -0.06000
C750        C  0.64351845  0.97483046  0.14618213     0.20900
C751        C  0.62561604  0.53016279  0.11744733     0.19000
C752        C  0.60264385  0.55753150  0.11666771    -0.17500
C753        C  0.57452443  0.55726705  0.14283351    -0.19700
C754        C  0.56915321  0.52979815  0.17041033     0.20500
C755        C  0.54023511  0.52861034  0.19531284    -0.32800
C756        C  0.53375622  0.00061265  0.22242117     0.01200
C757        C  0.55906403  0.97519762  0.22639092    -0.24100
C758        C  0.67041028  0.97414608  0.11790335    -0.28700
C759        C  0.67514787  0.50136404  0.08967617     0.06900
C760        C  0.65303877  0.52955672  0.09017140    -0.27300
H761        H  0.65608995  0.92658760  0.17600075     0.11600
H762        H  0.60787234  0.92735328  0.22363363     0.12700
H763        H  0.60612106  0.57886698  0.09536472     0.11800
H764        H  0.55676660  0.57836842  0.14119863     0.11100
H765        H  0.52179017  0.54904282  0.19269335     0.16400
H766        H  0.55692099  0.95491678  0.24900866     0.12400
H767        H  0.68765279  0.95253129  0.11786242     0.15200
H768        H  0.65651869  0.55053912  0.06835741     0.15000
C769        C  0.92073235  0.48485543  0.08054865    -0.17900
C770        C  0.94871250  0.48439493  0.10695270    -0.20100
C771        C  0.94419270  0.48916904  0.14899529     0.20600
C772        C  0.91119163  0.49381482  0.16473392    -0.03000
C773        C  0.88291169  0.49442976  0.13808921    -0.06000
C774        C  0.88781243  0.49005913  0.09577901     0.20900
C775        C  0.84982183  0.99962790  0.15370029     0.19000
C776        C  0.84529790  0.00334770  0.19588205    -0.17500
C777        C  0.87335399  0.00229043  0.22233342    -0.19700
C778        C  0.90644298  0.99784377  0.20701498     0.20500
C779        C  0.93492218  0.99816218  0.23310553    -0.32800
C780        C  0.96854284  0.99672454  0.21748900     0.01200
C781        C  0.97231160  0.48990518  0.17530457    -0.24100
C782        C  0.85971626  0.49107637  0.06945753    -0.28700
C783        C  0.82698209  0.49685924  0.08481568     0.06900
C784        C  0.82196806  0.00107327  0.12679629    -0.27300
H785        H  0.92487756  0.48139024  0.04816966     0.11600
H786        H  0.97396451  0.48070359  0.09442638     0.12700
H787        H  0.82007375  0.00719184  0.20840737     0.11800
H788        H  0.86922700  0.00544947  0.25474684     0.11100
H789        H  0.93116194  0.00129478  0.26560828     0.16400
H790        H  0.99702495  0.48500603  0.16220160     0.12400
H791        H  0.86325669  0.48770512  0.03691770     0.15200
H792        H  0.79645994  0.00523524  0.13837251     0.15000
C793        C  0.98860026  0.92361487  0.41515143    -0.17900
C794        C  0.98701624  0.95139533  0.38794693    -0.20100
C795        C  0.99012882  0.94570897  0.34589911     0.20600
C796        C  0.49397874  0.91168820  0.33091753    -0.03000
C797        C  0.49549966  0.88354672  0.35837477    -0.06000
C798        C  0.99310210  0.88970614  0.40069863     0.20900
C799        C  0.49959779  0.84936350  0.34357207     0.19000
C800        C  0.50139190  0.84366884  0.30135592    -0.17500
C801        C  0.49970129  0.87166094  0.27411129    -0.19700
C802        C  0.49637109  0.90583809  0.28862743     0.20500
C803        C  0.49637688  0.93435147  0.26178081    -0.32800
C804        C  0.99594794  0.96898006  0.27664730     0.01200
C805        C  0.99019601  0.97372992  0.31885535    -0.24100
C806        C  0.99513985  0.86186347  0.42788492    -0.28700
C807        C  0.99958264  0.82802072  0.41340747     0.06900
C808        C  0.50171007  0.82165060  0.37135117    -0.27300
H809        H  0.98652767  0.92868167  0.44752348     0.11600
H810        H  0.98391847  0.97745486  0.39986731     0.12700
H811        H  0.50431241  0.81759862  0.28941708     0.11800
H812        H  0.50151158  0.86663502  0.24171014     0.11100
H813        H  0.49861258  0.92983363  0.22929885     0.16400
H814        H  0.98588065  0.99922078  0.33149427     0.13200
H815        H  0.99311736  0.86639937  0.46041530     0.15200
H816        H  0.50467232  0.79524038  0.36043084     0.15000
C817        C  0.55828371  0.60382656  0.37744038    -0.17900
C818        C  0.55801199  0.57587757  0.35014069    -0.20100
C819        C  0.53076577  0.57081266  0.32276744     0.20600
C820        C  0.00404259  0.59458320  0.32199623    -0.03000
C821        C  0.00399556  0.62248220  0.34999719    -0.06000
C822        C  0.53113449  0.62689395  0.37804180     0.20900
C823        C  0.97645336  0.64543471  0.35054537     0.19000
C824        C  0.95009235  0.64126516  0.32177817    -0.17500
C825        C  0.95057202  0.61404146  0.29338480    -0.19700
C826        C  0.97708866  0.59014112  0.29378676     0.20500
C827        C  0.97653682  0.56138007  0.26729076    -0.32800
C828        C  0.00122860  0.53529454  0.27066072     0.01200
C829        C  0.52923380  0.54164985  0.29725004    -0.24100
C830        C  0.53032098  0.65382359  0.40676757    -0.28700
C831        C  0.00230894  0.67585574  0.40862143     0.06900
C832        C  0.97556710  0.67175293  0.38023092    -0.27300
H833        H  0.57937778  0.60697363  0.39865911     0.11600
H834        H  0.57885374  0.55790031  0.35087349     0.12700
H835        H  0.92891806  0.65884911  0.32149892     0.11800
H836        H  0.92969883  0.61112177  0.27182713     0.11100
H837        H  0.95638003  0.55952848  0.24490148     0.16400
H838        H  0.54918499  0.52270142  0.29934308     0.12400
H839        H  0.55099552  0.65692173  0.42860953     0.15200
H840        H  0.95416878  0.68906802  0.38122195     0.15000
C841        C  0.55600337  0.89593154  0.69237091    -0.17900
C842        C  0.55555198  0.86768043  0.66539722    -0.20100
C843        C  0.52716525  0.86104460  0.64011424     0.20600
C844        C  0.99882785  0.88291033  0.64232849    -0.03000
C845        C  0.99935504  0.91148308  0.66948332    -0.06000
C846        C  0.52805328  0.91800480  0.69457525     0.20900
C847        C  0.97142511  0.93381243  0.67097471     0.19000
C848        C  0.94304926  0.92726537  0.64565315    -0.17500
C849        C  0.94234806  0.89877365  0.61903218    -0.19700
C850        C  0.97012695  0.87650510  0.61707194     0.20500
C851        C  0.96991910  0.84829839  0.58985020    -0.32800
C852        C  0.99832512  0.82679914  0.58688655     0.01200
C853        C  0.52681317  0.83326731  0.61225384    -0.24100
C854        C  0.52850902  0.94653703  0.72130102    -0.28700
C855        C  0.00008982  0.96843843  0.72458571     0.06900
C856        C  0.97225712  0.96226873  0.69776569    -0.27300
H857        H  0.57826846  0.90054720  0.71148785     0.11600
H858        H  0.57749846  0.85112791  0.66415608     0.12700
H859        H  0.92134966  0.94416756  0.64647522     0.11800
H860        H  0.92015831  0.89429142  0.59976505     0.11100
H861        H  0.94801315  0.84367565  0.57013250     0.16400
H862        H  0.54875379  0.81673464  0.61022194     0.12400
H863        H  0.55157514  0.95170481  0.73863205     0.15200
H864        H  0.95077872  0.97949123  0.69852778     0.15000
C865        C  0.55395030  0.59832652  0.61437374    -0.17900
C866        C  0.55365117  0.57053400  0.64187595    -0.20100
C867        C  0.52617564  0.56533306  0.66885080     0.20600
C868        C  0.99867320  0.58820760  0.66799979    -0.03000
C869        C  0.49880478  0.61611823  0.64000371    -0.06000
C870        C  0.52669457  0.62127962  0.61325063     0.20900
C871        C  0.97097096  0.63869225  0.63863352     0.19000
C872        C  0.94344670  0.63333239  0.66549505    -0.17500
C873        C  0.94337386  0.60570890  0.69326335    -0.19700
C874        C  0.97082932  0.58295442  0.69468683     0.20500
C875        C  0.97065378  0.55491690  0.72209117    -0.32800
C876        C  0.99860572  0.53233771  0.72450687     0.01200
C877        C  0.52578870  0.53761291  0.69657233    -0.24100
C878        C  0.52678190  0.64918040  0.58572650    -0.28700
C879        C  0.99905462  0.67164005  0.58397468     0.06900
C880        C  0.97112050  0.66611231  0.61035404    -0.27300
H881        H  0.57548673  0.60182966  0.59391638     0.11600
H882        H  0.57497428  0.55313663  0.64211030     0.12700
H883        H  0.92191712  0.65045848  0.66496534     0.11800
H884        H  0.92177936  0.60211480  0.71361967     0.11100
H885        H  0.94810927  0.55063349  0.74054559     0.16400
H886        H  0.54698519  0.52003004  0.69684854     0.12400
H887        H  0.54819375  0.65306398  0.56512603     0.15200
H888        H  0.94969906  0.68338188  0.60916374     0.15000
loop_ 
_geom_bond_atom_site_label_1 
_geom_bond_atom_site_label_2 
_geom_bond_distance 
_geom_bond_site_symmetry_2 
_ccdc_geom_bond_type 
O1           Cu9   1.998       .  S
O1          C455   1.275       .  A
O2           Cu9   2.013       .  S
O2           C12   1.278       .  A
O3           Cu9   2.013       .  S
O3           C13   1.279       .  A
O4           Cu9   2.013       .  S
O4          C458   1.279       .  A
O5          Cu10   1.997       .  S
O5           C14   1.277       .  A
O6          Cu10   2.010       .  S
O6          C457   1.278   1_455  A
O7          Cu10   2.008       .  S
O7          C456   1.278   1_455  A
O8          Cu10   2.015       .  S
O8           C11   1.278       .  A
Cu9        Cu454   2.375       .  S
Cu10       Cu453   2.375   1_455  S
C11         O445   1.275   1_455  A
C11         C585   1.462   1_455  S
C12         O451   1.278       .  A
C12         C213   1.479       .  S
C13         O450   1.278       .  A
C13         C186   1.480       .  S
C14         O448   1.279   1_455  A
C14         C609   1.474       .  S
C15         C114   1.555       .  S
C15         C138   1.555       .  S
C15         C534   1.554       .  S
C15         C384   1.557       .  S
C16          C66   1.555       .  S
C16         C189   1.555       .  S
C16         C486   1.552       .  S
C16         C432   1.556       .  S
O17         Cu25   1.998       .  S
O17         C249   1.275       .  A
O18         Cu25   2.001   1_556  S
O18         C250   1.277       .  A
O19         Cu25   2.017   1_556  S
O19         C251   1.279       .  A
O20         Cu25   2.015       .  S
O20         C252   1.279       .  A
O21         Cu26   1.998       .  S
O21          C30   1.277       .  A
O22         Cu26   2.000   1_556  S
O22          C29   1.277   1_545  A
O23         Cu26   2.014   1_556  S
O23          C28   1.279       .  A
O24         Cu26   2.012       .  S
O24          C27   1.277   1_545  A
Cu25       Cu248   2.373       .  S
Cu26       Cu247   2.373   1_545  S
C27         O239   1.275       .  A
C27         C117   1.462       .  S
C28         O240   1.277   1_545  A
C28          C45   1.478       .  S
C29         O241   1.279       .  A
C29          C69   1.479       .  S
C30         O242   1.279   1_545  A
C30          C93   1.475       .  S
C31          C32   1.397       .  A
C31          C36   1.403       .  A
C31          H47   1.084       .  S
C32          C33   1.403       .  A
C32          H48   1.084       .  S
C33          C43   1.398       .  A
C33         C256   1.408       .  A
C34          C40   1.409       .  A
C34          C35   1.411       .  A
C34         C255   1.408   1_545  A
C35          C37   1.412       .  A
C35         C258   1.411   1_545  A
C36         C257   1.411       .  A
C36         C266   1.400       .  A
C37          C46   1.404       .  A
C37          C38   1.403       .  A
C38          C39   1.399       .  A
C38          H49   1.084       .  S
C39          C40   1.404       .  A
C39          H50   1.084       .  S
C40          C41   1.403       .  A
C41         C264   1.416       .  A
C41          H51   1.080       .  S
C42         C460   1.552   1_455  S
C42          C43   1.414       .  A
C42         C263   1.416       .  A
C43          H52   1.084       .  S
C44          C45   1.406   1_565  A
C44         C258   1.400       .  A
C44         H275   1.084       .  S
C45          C46   1.406       .  A
C46          H54   1.084       .  S
H53         C266   1.084       .  S
C55          C56   1.398       .  A
C55          C60   1.403       .  A
C55          H71   1.084       .  S
C56          C57   1.403       .  A
C56          H72   1.084       .  S
C57          C67   1.401       .  A
C57         C280   1.409   1_545  A
C58          C64   1.408       .  A
C58          C59   1.412       .  A
C58         C279   1.409       .  A
C59          C61   1.412       .  A
C59         C282   1.410       .  A
C60          C68   1.401       .  A
C60         C281   1.410   1_545  A
C61          C70   1.404       .  A
C61          C62   1.403       .  A
C62          C63   1.399       .  A
C62          H73   1.084       .  S
C63          C64   1.405       .  A
C63          H74   1.084       .  S
C64          C65   1.402       .  A
C65          C66   1.417       .  A
C65          H75   1.080       .  S
C66         C289   1.415       .  A
C67         C288   1.415   1_545  A
C67          H76   1.084       .  S
C68          C69   1.407   1_545  A
C68          H77   1.084       .  S
C69         C292   1.406       .  A
C70         C291   1.406       .  A
C70          H78   1.084       .  S
C79          C80   1.400       .  A
C79          C84   1.404       .  A
C79          H95   1.084       .  S
C80          C81   1.405       .  A
C80          H96   1.084       .  S
C81          C91   1.404       .  A
C81         C304   1.409       .  A
C82          C88   1.408       .  A
C82          C83   1.410       .  A
C82         C303   1.409   1_545  A
C83          C85   1.411       .  A
C83         C306   1.412   1_545  A
C84          C92   1.405       .  A
C84         C305   1.412       .  A
C85          C94   1.399       .  A
C85          C86   1.402       .  A
C86          C87   1.396       .  A
C86          H97   1.084       .  S
C87          C88   1.402       .  A
C87          H98   1.084       .  S
C88          C89   1.396       .  A
C89         C312   1.415       .  A
C89          H99   1.084       .  S
C90         C459   1.554   1_455  S
C90          C91   1.416       .  A
C90         C311   1.415       .  A
C91         H100   1.078       .  S
C92         C315   1.406       .  A
C92         H101   1.084       .  S
C93          C94   1.405       .  A
C93         C314   1.406   1_545  A
C94         H102   1.084       .  S
C103        C104   1.396       .  A
C103        C108   1.402       .  A
C103        H119   1.084       .  S
C104        C105   1.404       .  A
C104        H120   1.083       .  S
C105        C115   1.398       .  A
C105        C106   1.407       .  A
C106        C107   1.411       .  A
C106        C334   1.410       .  A
C107        C108   1.413       .  A
C107        C331   1.412       .  A
C108        C116   1.399       .  A
C109        C118   1.405       .  A
C109        C110   1.404       .  A
C109        C329   1.412       .  A
C110        C111   1.401       .  A
C110        H121   1.083       .  S
C111        C112   1.404       .  A
C111        H122   1.084       .  S
C112        C113   1.405       .  A
C112        C328   1.410       .  A
C113        C114   1.415       .  A
C113        H123   1.084       .  S
C114        C337   1.418       .  A
C115        C336   1.418       .  A
C115        H124   1.080       .  S
C116        C117   1.400       .  A
C116        H125   1.085       .  S
C117        C340   1.403   1_565  A
C118        C339   1.403       .  A
C118        H126   1.084       .  S
C127        C128   1.395       .  A
C127        C132   1.401       .  A
C127        H143   1.084       .  S
C128        C129   1.403       .  A
C128        H144   1.084       .  S
C129        C139   1.396       .  A
C129        C574   1.407       .  A
C130        C136   1.410       .  A
C130        C131   1.411       .  A
C130        C573   1.407       .  A
C131        C133   1.412       .  A
C131        C576   1.413       .  A
C132        C140   1.398       .  A
C132        C575   1.413       .  A
C133        C142   1.407   1_655  A
C133        C134   1.405   1_655  A
C134        C135   1.402   1_455  A
C134        H145   1.083       .  S
C135        C136   1.405       .  A
C135        H146   1.083   1_655  S
C136        C137   1.406       .  A
C137        C582   1.416       .  A
C137        H147   1.084       .  S
C138        C139   1.416       .  A
C138        C581   1.416       .  A
C139        H148   1.080       .  S
C140        C141   1.398       .  A
C140        H149   1.085       .  S
C141        C455   1.462       .  S
C141        C586   1.405       .  A
C142        C585   1.405   1_455  A
C142        H150   1.084       .  S
C151        C152   1.397       .  A
C151        C156   1.402       .  A
C151        H167   1.084       .  S
C152        C153   1.403       .  A
C152        H168   1.084       .  S
C153        C163   1.397       .  A
C153        C598   1.408       .  A
C154        C160   1.409       .  A
C154        C155   1.410       .  A
C154        C597   1.408       .  A
C155        C157   1.411       .  A
C155        C600   1.411       .  A
C156        C164   1.399       .  A
C156        C599   1.411       .  A
C157        C166   1.404       .  A
C157        C158   1.404       .  A
C158        C159   1.400       .  A
C158        H169   1.084       .  S
C159        C160   1.405       .  A
C159        H170   1.084       .  S
C160        C161   1.404       .  A
C161        C162   1.416       .  A
C161        H171   1.078       .  S
C162        C237   1.557       .  S
C162        C607   1.416       .  A
C163        C606   1.416       .  A
C163        H172   1.084       .  S
C164        C609   1.405       .  A
C164        H173   1.084       .  S
C165        C458   1.474       .  S
C165        C166   1.406       .  A
C165        C608   1.405       .  A
C166        H174   1.084       .  S
C175        C176   1.399       .  A
C175        C180   1.404       .  A
C175        H191   1.084       .  S
C176        C177   1.403       .  A
C176        H192   1.084       .  S
C177        C187   1.404       .  A
C177        C622   1.412   1_455  A
C178        C184   1.411       .  A
C178        C179   1.412       .  A
C178        C621   1.412       .  A
C179        C181   1.409       .  A
C179        C624   1.409       .  A
C180        C188   1.402       .  A
C180        C623   1.409   1_455  A
C181        C190   1.401       .  A
C181        C182   1.403       .  A
C182        C183   1.399       .  A
C182        H193   1.084       .  S
C183        C184   1.403       .  A
C183        H194   1.083       .  S
C184        C185   1.403       .  A
C185        C186   1.407       .  A
C185        H195   1.084       .  S
C186        C631   1.407       .  A
C187        C630   1.407   1_455  A
C187        H196   1.084       .  S
C188        C633   1.417       .  A
C188        H197   1.080       .  S
C189        C190   1.414       .  A
C189        C632   1.417       .  A
C190        H198   1.084       .  S
C199        C200   1.399       .  A
C199        C204   1.403       .  A
C199        H215   1.083       .  S
C200        C201   1.403       .  A
C200        H216   1.084       .  S
C201        C211   1.401       .  A
C201        C646   1.409   1_455  A
C202        C208   1.409       .  A
C202        C645   1.409       .  A
C202        C647   1.413       .  A
C203        C204   1.411   1_655  A
C203        C646   1.413       .  A
C203        C649   1.412       .  A
C204        C212   1.402       .  A
C205        C214   1.405       .  A
C205        C206   1.403       .  A
C205        C647   1.412       .  A
C206        C207   1.400       .  A
C206        H217   1.083       .  S
C207        C208   1.405       .  A
C207        H218   1.084       .  S
C208        C209   1.404       .  A
C209        C210   1.417       .  A
C209        H219   1.079       .  S
C210        C238   1.556       .  S
C210        C655   1.415       .  A
C211        C654   1.415   1_455  A
C211        H220   1.084       .  S
C212        C657   1.406   1_455  A
C212        H221   1.084       .  S
C213        C214   1.407       .  A
C213        C656   1.406       .  A
C214        H222   1.084       .  S
O223       Cu231   1.998       .  S
O223        C677   1.275       .  A
O224       Cu231   2.013       .  S
O224        C234   1.278       .  A
O225       Cu231   2.013       .  S
O225        C235   1.279       .  A
O226       Cu231   2.013       .  S
O226        C680   1.279       .  A
O227       Cu232   1.997       .  S
O227        C236   1.277       .  A
O228       Cu232   2.010       .  S
O228        C679   1.278   1_455  A
O229       Cu232   2.008       .  S
O229        C678   1.278   1_455  A
O230       Cu232   2.015       .  S
O230        C233   1.278   1_455  A
Cu231      Cu676   2.375       .  S
Cu232      Cu675   2.375   1_455  S
C233        O667   1.275       .  A
C233        C807   1.462       .  S
C234        O673   1.278       .  A
C234        C435   1.479       .  S
C235        O672   1.278       .  A
C235        C408   1.480       .  S
C236        O670   1.279   1_455  A
C236        C831   1.474       .  S
C237        C756   1.554       .  S
C237        C336   1.555   1_545  S
C237        C360   1.555   1_545  S
C238        C708   1.552       .  S
C238        C288   1.555   1_545  S
C238        C411   1.555   1_545  S
O239       Cu247   1.998       .  S
O240       Cu247   2.002   1_556  S
O241       Cu247   2.017   1_556  S
O242       Cu247   2.015       .  S
O243       Cu248   1.998       .  S
O243        C252   1.277       .  A
O244       Cu248   2.000   1_556  S
O244        C251   1.277       .  A
O245       Cu248   2.014   1_556  S
O245        C250   1.279       .  A
O246       Cu248   2.012       .  S
O246        C249   1.277       .  A
C249        C339   1.462       .  S
C250        C267   1.477       .  S
C251        C291   1.479       .  S
C252        C315   1.475       .  S
C253        C254   1.397       .  A
C253        C258   1.403       .  A
C253        H269   1.084       .  S
C254        C255   1.403       .  A
C254        H270   1.084       .  S
C255        C265   1.398       .  A
C256        C262   1.409       .  A
C256        C257   1.411       .  A
C257        C259   1.412       .  A
C259        C268   1.404       .  A
C259        C260   1.403       .  A
C260        C261   1.399       .  A
C260        H271   1.084       .  S
C261        C262   1.404       .  A
C261        H272   1.084       .  S
C262        C263   1.403       .  A
C263        H273   1.080       .  S
C264        C682   1.552   1_455  S
C264        C265   1.414   1_545  A
C265        H274   1.084       .  S
C266        C267   1.406       .  A
C267        C268   1.406       .  A
C268        H276   1.084       .  S
C277        C278   1.398       .  A
C277        C282   1.403       .  A
C277        H293   1.084       .  S
C278        C279   1.403       .  A
C278        H294   1.084       .  S
C279        C289   1.401       .  A
C280        C286   1.408       .  A
C280        C281   1.412       .  A
C281        C283   1.412       .  A
C282        C290   1.401       .  A
C283        C292   1.404       .  A
C283        C284   1.403       .  A
C284        C285   1.399       .  A
C284        H295   1.084       .  S
C285        C286   1.405       .  A
C285        H296   1.084       .  S
C286        C287   1.402       .  A
C287        C288   1.417       .  A
C287        H297   1.080       .  S
C289        H298   1.084       .  S
C290        C291   1.407       .  A
C290        H299   1.084       .  S
C292        H300   1.084       .  S
C301        C302   1.400       .  A
C301        C306   1.404       .  A
C301        H317   1.084       .  S
C302        C303   1.405       .  A
C302        H318   1.084       .  S
C303        C313   1.404       .  A
C304        C310   1.408       .  A
C304        C305   1.410       .  A
C305        C307   1.411       .  A
C306        C314   1.405       .  A
C307        C316   1.399       .  A
C307        C308   1.402       .  A
C308        C309   1.396       .  A
C308        H319   1.084       .  S
C309        C310   1.402       .  A
C309        H320   1.084       .  S
C310        C311   1.396       .  A
C311        H321   1.084       .  S
C312        C681   1.554   1_455  S
C312        C313   1.416   1_545  A
C313        H322   1.078       .  S
C314        H323   1.084       .  S
C315        C316   1.405       .  A
C316        H324   1.084       .  S
C325        C326   1.396       .  A
C325        C330   1.402       .  A
C325        H341   1.084       .  S
C326        C327   1.404       .  A
C326        H342   1.083       .  S
C327        C337   1.398       .  A
C327        C328   1.407       .  A
C328        C329   1.411       .  A
C329        C330   1.413       .  A
C330        C338   1.399       .  A
C331        C340   1.405   1_565  A
C331        C332   1.404   1_565  A
C332        C333   1.401       .  A
C332        H343   1.083       .  S
C333        C334   1.404   1_545  A
C333        H344   1.084       .  S
C334        C335   1.405       .  A
C335        C336   1.415       .  A
C335        H345   1.084   1_565  S
C337        H346   1.080       .  S
C338        C339   1.400       .  A
C338        H347   1.085       .  S
C340        H348   1.084       .  S
C349        C350   1.395       .  A
C349        C354   1.401       .  A
C349        H365   1.084       .  S
C350        C351   1.403       .  A
C350        H366   1.084       .  S
C351        C361   1.396       .  A
C351        C796   1.407       .  A
C352        C795   1.407       .  A
C352        C358   1.410       .  A
C352        C353   1.411       .  A
C353        C355   1.412       .  A
C353        C798   1.413       .  A
C354        C797   1.413       .  A
C354        C362   1.398       .  A
C355        C364   1.407   1_655  A
C355        C356   1.405   1_655  A
C356        C357   1.402   1_455  A
C356        H367   1.083       .  S
C357        C358   1.405       .  A
C357        H368   1.083   1_655  S
C358        C359   1.406       .  A
C359        C804   1.416       .  A
C359        H369   1.084       .  S
C360        C803   1.416       .  A
C360        C361   1.416       .  A
C361        H370   1.080       .  S
C362        C363   1.398       .  A
C362        H371   1.085       .  S
C363        C677   1.462       .  S
C363        C808   1.405       .  A
C364        C807   1.405   1_455  A
C364        H372   1.084       .  S
C373        C374   1.397       .  A
C373        C378   1.402       .  A
C373        H389   1.084       .  S
C374        C375   1.403       .  A
C374        H390   1.084       .  S
C375        C385   1.397       .  A
C375        C820   1.408       .  A
C376        C819   1.408       .  A
C376        C382   1.409       .  A
C376        C377   1.410       .  A
C377        C379   1.412       .  A
C377        C822   1.411       .  A
C378        C821   1.411       .  A
C378        C386   1.399       .  A
C379        C388   1.404       .  A
C379        C380   1.404       .  A
C380        C381   1.400       .  A
C380        H391   1.084       .  S
C381        C382   1.405       .  A
C381        H392   1.084       .  S
C382        C383   1.404       .  A
C383        C384   1.416       .  A
C383        H393   1.078       .  S
C384        C829   1.416       .  A
C385        C828   1.416       .  A
C385        H394   1.084       .  S
C386        C831   1.405       .  A
C386        H395   1.084       .  S
C387        C680   1.474       .  S
C387        C830   1.405       .  A
C387        C388   1.406       .  A
C388        H396   1.084       .  S
C397        C398   1.399       .  A
C397        C402   1.404       .  A
C397        H413   1.084       .  S
C398        C399   1.403       .  A
C398        H414   1.084       .  S
C399        C409   1.404       .  A
C399        C844   1.412   1_455  A
C400        C843   1.412       .  A
C400        C406   1.411       .  A
C400        C401   1.412       .  A
C401        C403   1.409       .  A
C401        C846   1.409       .  A
C402        C845   1.409   1_455  A
C402        C410   1.402       .  A
C403        C412   1.401       .  A
C403        C404   1.403       .  A
C404        C405   1.399       .  A
C404        H415   1.084       .  S
C405        C406   1.403       .  A
C405        H416   1.083       .  S
C406        C407   1.403       .  A
C407        C408   1.407       .  A
C407        H417   1.084       .  S
C408        C853   1.407       .  A
C409        C852   1.407   1_455  A
C409        H418   1.084       .  S
C410        C855   1.417       .  A
C410        H419   1.080       .  S
C411        C854   1.417       .  A
C411        C412   1.414       .  A
C412        H420   1.084       .  S
C421        C422   1.399       .  A
C421        C426   1.403       .  A
C421        H437   1.083       .  S
C422        C423   1.403       .  A
C422        H438   1.084       .  S
C423        C433   1.401       .  A
C423        C868   1.409   1_455  A
C424        C867   1.409       .  A
C424        C430   1.409       .  A
C424        C869   1.413       .  A
C425        C868   1.413       .  A
C425        C871   1.412       .  A
C425        C426   1.411   1_655  A
C426        C434   1.402       .  A
C427        C869   1.412       .  A
C427        C436   1.405       .  A
C427        C428   1.403       .  A
C428        C429   1.399       .  A
C428        H439   1.083       .  S
C429        C430   1.405       .  A
C429        H440   1.084       .  S
C430        C431   1.404       .  A
C431        C432   1.417       .  A
C431        H441   1.079       .  S
C432        C877   1.415       .  A
C433        C876   1.415   1_455  A
C433        H442   1.084       .  S
C434        C879   1.406   1_455  A
C434        H443   1.084       .  S
C435        C878   1.406       .  A
C435        C436   1.407       .  A
C436        H444   1.084       .  S
O445       Cu453   1.998       .  S
O446       Cu453   2.013       .  S
O446        C456   1.278       .  A
O447       Cu453   2.013       .  S
O447        C457   1.279       .  A
O448       Cu453   2.013       .  S
O449       Cu454   1.997       .  S
O449        C458   1.277       .  A
O450       Cu454   2.010       .  S
O451       Cu454   2.008       .  S
O452       Cu454   2.015       .  S
O452        C455   1.278       .  A
C456        C657   1.479       .  S
C457        C630   1.480       .  S
C459        C558   1.555       .  S
C459        C582   1.555       .  S
C459        C828   1.557   1_655  S
C460        C510   1.555       .  S
C460        C633   1.555   1_655  S
C460        C876   1.556       .  S
O461       Cu469   1.998       .  S
O461        C693   1.275       .  A
O462       Cu469   2.001   1_556  S
O462        C694   1.277       .  A
O463       Cu469   2.017   1_556  S
O463        C695   1.279       .  A
O464       Cu469   2.015       .  S
O464        C696   1.279       .  A
O465       Cu470   1.998       .  S
O465        C474   1.277       .  A
O466       Cu470   2.000   1_556  S
O466        C473   1.277   1_545  A
O467       Cu470   2.014   1_556  S
O467        C472   1.279       .  A
O468       Cu470   2.012       .  S
O468        C471   1.277   1_545  A
Cu469      Cu692   2.373       .  S
Cu470      Cu691   2.373   1_545  S
C471        O683   1.275       .  A
C471        C561   1.462       .  S
C472        O684   1.277   1_545  A
C472        C489   1.478       .  S
C473        O685   1.279       .  A
C473        C513   1.479       .  S
C474        O686   1.279   1_545  A
C474        C537   1.475       .  S
C475        C476   1.397       .  A
C475        C480   1.403       .  A
C475        H491   1.084       .  S
C476        C477   1.403       .  A
C476        H492   1.084       .  S
C477        C487   1.398       .  A
C477        C700   1.408       .  A
C478        C699   1.408   1_545  A
C478        C484   1.409       .  A
C478        C479   1.411       .  A
C479        C481   1.412       .  A
C479        C702   1.411   1_545  A
C480        C701   1.411       .  A
C480        C710   1.400       .  A
C481        C490   1.404       .  A
C481        C482   1.403       .  A
C482        C483   1.399       .  A
C482        H493   1.084       .  S
C483        C484   1.404       .  A
C483        H494   1.084       .  S
C484        C485   1.403       .  A
C485        C708   1.416       .  A
C485        H495   1.080       .  S
C486        C707   1.416       .  A
C486        C487   1.414       .  A
C487        H496   1.084       .  S
C488        C702   1.400       .  A
C488        C489   1.406   1_565  A
C488        H719   1.084       .  S
C489        C490   1.406       .  A
C490        H498   1.084       .  S
H497        C710   1.084       .  S
C499        C500   1.398       .  A
C499        C504   1.403       .  A
C499        H515   1.084       .  S
C500        C501   1.403       .  A
C500        H516   1.084       .  S
C501        C511   1.401       .  A
C501        C724   1.409   1_545  A
C502        C723   1.409       .  A
C502        C508   1.408       .  A
C502        C503   1.412       .  A
C503        C505   1.412       .  A
C503        C726   1.410       .  A
C504        C725   1.410   1_545  A
C504        C512   1.401       .  A
C505        C514   1.404       .  A
C505        C506   1.403       .  A
C506        C507   1.399       .  A
C506        H517   1.084       .  S
C507        C508   1.405       .  A
C507        H518   1.084       .  S
C508        C509   1.402       .  A
C509        C510   1.417       .  A
C509        H519   1.080       .  S
C510        C733   1.415       .  A
C511        C732   1.415   1_545  A
C511        H520   1.084       .  S
C512        C513   1.407   1_545  A
C512        H521   1.084       .  S
C513        C736   1.406       .  A
C514        C735   1.406       .  A
C514        H522   1.084       .  S
C523        C524   1.400       .  A
C523        C528   1.404       .  A
C523        H539   1.084       .  S
C524        C525   1.405       .  A
C524        H540   1.084       .  S
C525        C535   1.404       .  A
C525        C748   1.409       .  A
C526        C747   1.409   1_545  A
C526        C532   1.408       .  A
C526        C527   1.410       .  A
C527        C529   1.411       .  A
C527        C750   1.412   1_545  A
C528        C749   1.412       .  A
C528        C536   1.405       .  A
C529        C538   1.399       .  A
C529        C530   1.402       .  A
C530        C531   1.396       .  A
C530        H541   1.084       .  S
C531        C532   1.402       .  A
C531        H542   1.084       .  S
C532        C533   1.396       .  A
C533        C756   1.415       .  A
C533        H543   1.084       .  S
C534        C755   1.415       .  A
C534        C535   1.416       .  A
C535        H544   1.078       .  S
C536        C759   1.406       .  A
C536        H545   1.084       .  S
C537        C758   1.406   1_545  A
C537        C538   1.405       .  A
C538        H546   1.084       .  S
C547        C548   1.396       .  A
C547        C552   1.402       .  A
C547        H563   1.084       .  S
C548        C549   1.404       .  A
C548        H564   1.083       .  S
C549        C559   1.398       .  A
C549        C550   1.407       .  A
C550        C778   1.410       .  A
C550        C551   1.411       .  A
C551        C775   1.412       .  A
C551        C552   1.413       .  A
C552        C560   1.399       .  A
C553        C773   1.412       .  A
C553        C562   1.405       .  A
C553        C554   1.404       .  A
C554        C555   1.401       .  A
C554        H565   1.083       .  S
C555        C556   1.404       .  A
C555        H566   1.084       .  S
C556        C772   1.410       .  A
C556        C557   1.405       .  A
C557        C558   1.415       .  A
C557        H567   1.084       .  S
C558        C781   1.418       .  A
C559        C780   1.418       .  A
C559        H568   1.080       .  S
C560        C561   1.400       .  A
C560        H569   1.085       .  S
C561        C784   1.403   1_565  A
C562        C783   1.403       .  A
C562        H570   1.084       .  S
C571        C572   1.395       .  A
C571        C576   1.401       .  A
C571        H587   1.084       .  S
C572        C573   1.403       .  A
C572        H588   1.084       .  S
C573        C583   1.396       .  A
C574        C580   1.410       .  A
C574        C575   1.411       .  A
C575        C577   1.412       .  A
C576        C584   1.398       .  A
C577        C586   1.407       .  A
C577        C578   1.405       .  A
C578        C579   1.402       .  A
C578        H589   1.083       .  S
C579        C580   1.405       .  A
C579        H590   1.083       .  S
C580        C581   1.406       .  A
C581        H591   1.084       .  S
C582        C583   1.416       .  A
C583        H592   1.080       .  S
C584        C585   1.398       .  A
C584        H593   1.085       .  S
C586        H594   1.084       .  S
C595        C596   1.397       .  A
C595        C600   1.402       .  A
C595        H611   1.084       .  S
C596        C597   1.403       .  A
C596        H612   1.084       .  S
C597        C607   1.397       .  A
C598        C604   1.409   1_455  A
C598        C599   1.410       .  A
C599        C601   1.411   1_455  A
C600        C608   1.399       .  A
C601        C610   1.404       .  A
C601        C602   1.404       .  A
C602        C603   1.400       .  A
C602        H613   1.084       .  S
C603        C604   1.405       .  A
C603        H614   1.084       .  S
C604        C605   1.404       .  A
C605        C606   1.416   1_655  A
C605        H615   1.078       .  S
C606        C681   1.557   1_455  S
C607        H616   1.084       .  S
C608        H617   1.084       .  S
C609        C610   1.406   1_455  A
C610        H618   1.084       .  S
C619        C620   1.399       .  A
C619        C624   1.404       .  A
C619        H635   1.084       .  S
C620        C621   1.403       .  A
C620        H636   1.084       .  S
C621        C631   1.404       .  A
C622        C628   1.411       .  A
C622        C623   1.412       .  A
C623        C625   1.409       .  A
C624        C632   1.402       .  A
C625        C634   1.401       .  A
C625        C626   1.403       .  A
C626        C627   1.399       .  A
C626        H637   1.084       .  S
C627        C628   1.403       .  A
C627        H638   1.083       .  S
C628        C629   1.403       .  A
C629        C630   1.407       .  A
C629        H639   1.084       .  S
C631        H640   1.084       .  S
C632        H641   1.080       .  S
C633        C634   1.414   1_455  A
C634        H642   1.084       .  S
C643        C644   1.399       .  A
C643        C648   1.403       .  A
C643        H659   1.083       .  S
C644        C645   1.403       .  A
C644        H660   1.084       .  S
C645        C655   1.401       .  A
C646        C652   1.409       .  A
C647        C648   1.411       .  A
C648        C656   1.402       .  A
C649        C658   1.405       .  A
C649        C650   1.403       .  A
C650        C651   1.400       .  A
C650        H661   1.083       .  S
C651        C652   1.405       .  A
C651        H662   1.084       .  S
C652        C653   1.404       .  A
C653        C654   1.417       .  A
C653        H663   1.079       .  S
C654        C682   1.556       .  S
C655        H664   1.084       .  S
C656        H665   1.084       .  S
C657        C658   1.407       .  A
C658        H666   1.084       .  S
O667       Cu675   1.998       .  S
O668       Cu675   2.013       .  S
O668        C678   1.278       .  A
O669       Cu675   2.013       .  S
O669        C679   1.279       .  A
O670       Cu675   2.013       .  S
O671       Cu676   1.997       .  S
O671        C680   1.277       .  A
O672       Cu676   2.010       .  S
O673       Cu676   2.008       .  S
O674       Cu676   2.015       .  S
O674        C677   1.278       .  A
C678        C879   1.479       .  S
C679        C852   1.480       .  S
C681        C780   1.555   1_545  S
C681        C804   1.555   1_545  S
C682        C732   1.555   1_545  S
C682        C855   1.555   1_645  S
O683       Cu691   1.998       .  S
O684       Cu691   2.002   1_556  S
O685       Cu691   2.017   1_556  S
O686       Cu691   2.015       .  S
O687       Cu692   1.998       .  S
O687        C696   1.277       .  A
O688       Cu692   2.000   1_556  S
O688        C695   1.277       .  A
O689       Cu692   2.014   1_556  S
O689        C694   1.279       .  A
O690       Cu692   2.012       .  S
O690        C693   1.277       .  A
C693        C783   1.462       .  S
C694        C711   1.477       .  S
C695        C735   1.479       .  S
C696        C759   1.475       .  S
C697        C698   1.397       .  A
C697        C702   1.403       .  A
C697        H713   1.084       .  S
C698        C699   1.403       .  A
C698        H714   1.084       .  S
C699        C709   1.398       .  A
C700        C706   1.409       .  A
C700        C701   1.411       .  A
C701        C703   1.412       .  A
C703        C712   1.404       .  A
C703        C704   1.403       .  A
C704        C705   1.399       .  A
C704        H715   1.084       .  S
C705        C706   1.404       .  A
C705        H716   1.084       .  S
C706        C707   1.403       .  A
C707        H717   1.080       .  S
C708        C709   1.414   1_545  A
C709        H718   1.084       .  S
C710        C711   1.406       .  A
C711        C712   1.406       .  A
C712        H720   1.084       .  S
C721        C722   1.398       .  A
C721        C726   1.403       .  A
C721        H737   1.084       .  S
C722        C723   1.403       .  A
C722        H738   1.084       .  S
C723        C733   1.401       .  A
C724        C730   1.408       .  A
C724        C725   1.412       .  A
C725        C727   1.412       .  A
C726        C734   1.401       .  A
C727        C736   1.404       .  A
C727        C728   1.403       .  A
C728        C729   1.399       .  A
C728        H739   1.084       .  S
C729        C730   1.405       .  A
C729        H740   1.084       .  S
C730        C731   1.402       .  A
C731        C732   1.417       .  A
C731        H741   1.080       .  S
C733        H742   1.084       .  S
C734        C735   1.407       .  A
C734        H743   1.084       .  S
C736        H744   1.084       .  S
C745        C746   1.400       .  A
C745        C750   1.404       .  A
C745        H761   1.084       .  S
C746        C747   1.405       .  A
C746        H762   1.084       .  S
C747        C757   1.404       .  A
C748        C754   1.408       .  A
C748        C749   1.410       .  A
C749        C751   1.411       .  A
C750        C758   1.405       .  A
C751        C760   1.399       .  A
C751        C752   1.402       .  A
C752        C753   1.396       .  A
C752        H763   1.084       .  S
C753        C754   1.402       .  A
C753        H764   1.084       .  S
C754        C755   1.396       .  A
C755        H765   1.084       .  S
C756        C757   1.416   1_545  A
C757        H766   1.078       .  S
C758        H767   1.084       .  S
C759        C760   1.405       .  A
C760        H768   1.084       .  S
C769        C770   1.396       .  A
C769        C774   1.402       .  A
C769        H785   1.084       .  S
C770        C771   1.404       .  A
C770        H786   1.083       .  S
C771        C781   1.398       .  A
C771        C772   1.407       .  A
C772        C773   1.411       .  A
C773        C774   1.413       .  A
C774        C782   1.399       .  A
C775        C784   1.405   1_565  A
C775        C776   1.404   1_565  A
C776        C777   1.401       .  A
C776        H787   1.083       .  S
C777        C778   1.404   1_545  A
C777        H788   1.084       .  S
C778        C779   1.405       .  A
C779        C780   1.415       .  A
C779        H789   1.084   1_565  S
C781        H790   1.080       .  S
C782        C783   1.400       .  A
C782        H791   1.085       .  S
C784        H792   1.084       .  S
C793        C794   1.395       .  A
C793        C798   1.401       .  A
C793        H809   1.084       .  S
C794        C795   1.403       .  A
C794        H810   1.084       .  S
C795        C805   1.396       .  A
C796        C802   1.410       .  A
C796        C797   1.411       .  A
C797        C799   1.412       .  A
C798        C806   1.398       .  A
C799        C808   1.407       .  A
C799        C800   1.405       .  A
C800        C801   1.402       .  A
C800        H811   1.083       .  S
C801        C802   1.405       .  A
C801        H812   1.083       .  S
C802        C803   1.406       .  A
C803        H813   1.084       .  S
C804        C805   1.416       .  A
C805        H814   1.080       .  S
C806        C807   1.398       .  A
C806        H815   1.085       .  S
C808        H816   1.084       .  S
C817        C818   1.397       .  A
C817        C822   1.402       .  A
C817        H833   1.084       .  S
C818        C819   1.403       .  A
C818        H834   1.084       .  S
C819        C829   1.397       .  A
C820        C826   1.409   1_455  A
C820        C821   1.410       .  A
C821        C823   1.412   1_455  A
C822        C830   1.399       .  A
C823        C832   1.404       .  A
C823        C824   1.404       .  A
C824        C825   1.400       .  A
C824        H835   1.084       .  S
C825        C826   1.405       .  A
C825        H836   1.084       .  S
C826        C827   1.404       .  A
C827        C828   1.416   1_655  A
C827        H837   1.078       .  S
C829        H838   1.084       .  S
C830        H839   1.084       .  S
C831        C832   1.406   1_455  A
C832        H840   1.084       .  S
C841        C842   1.399       .  A
C841        C846   1.404       .  A
C841        H857   1.084       .  S
C842        C843   1.403       .  A
C842        H858   1.084       .  S
C843        C853   1.404       .  A
C844        C850   1.411       .  A
C844        C845   1.412       .  A
C845        C847   1.409       .  A
C846        C854   1.402       .  A
C847        C856   1.401       .  A
C847        C848   1.403       .  A
C848        C849   1.399       .  A
C848        H859   1.084       .  S
C849        C850   1.403       .  A
C849        H860   1.083       .  S
C850        C851   1.403       .  A
C851        C852   1.407       .  A
C851        H861   1.084       .  S
C853        H862   1.084       .  S
C854        H863   1.080       .  S
C855        C856   1.414   1_455  A
C856        H864   1.084       .  S
C865        C866   1.399       .  A
C865        C870   1.403       .  A
C865        H881   1.083       .  S
C866        C867   1.403       .  A
C866        H882   1.084       .  S
C867        C877   1.401       .  A
C868        C874   1.409       .  A
C869        C870   1.411       .  A
C870        C878   1.402       .  A
C871        C880   1.405       .  A
C871        C872   1.403       .  A
C872        C873   1.399       .  A
C872        H883   1.083       .  S
C873        C874   1.405       .  A
C873        H884   1.084       .  S
C874        C875   1.404       .  A
C875        C876   1.417       .  A
C875        H885   1.079       .  S
C877        H886   1.084       .  S
C878        H887   1.084       .  S
C879        C880   1.407       .  A
C880        H888   1.084       .  S
