geometry optimzed in LAMMPS
_audit_creation_date              2020-12-01 
_audit_creation_method            'lammps2cif' 
_symmetry_space_group_name_H-M    'P1' 
_symmetry_Int_Tables_number       1 
_symmetry_cell_setting            triclinic 
loop_ 
_symmetry_equiv_pos_as_xyz 
  x,y,z 
_cell_length_a                    51.73241512 
_cell_length_b                    51.719124569505986 
_cell_length_c                    51.69490016434724 
_cell_angle_alpha                 89.74630798149185 
_cell_angle_beta                  89.74295401379868 
_cell_angle_gamma                 89.28030555368281 
loop_ 
_atom_site_label 
_atom_site_type_symbol 
_atom_site_fract_x 
_atom_site_fract_y 
_atom_site_fract_z 
_atom_site_charge 
N1          N  0.33413052  0.87580871  0.74213140    -0.05800
N2          N  0.31807986  0.88759382  0.75816510    -0.58000
N3          N  0.36407263  0.82109376  0.72299941    -0.05500
N4          N  0.36718743  0.79590922  0.72588653    -0.60100
N5          N  0.37683772  0.83356696  0.74074463    -0.05100
N6          N  0.38913098  0.81727391  0.75612279    -0.57900
N7          N  0.32135210  0.86334618  0.72438586    -0.04800
N8          N  0.29623629  0.86621465  0.72782049    -0.60400
C9          C  0.29464406  0.88168946  0.74866700     0.96300
C10         C  0.38323300  0.79397909  0.74631277     0.96100
N11         N  0.37341076  0.83215824  0.64445258    -0.06000
N12         N  0.38211620  0.81320147  0.62902706    -0.58500
N13         N  0.31969732  0.86269967  0.66546476    -0.04100
N14         N  0.29433221  0.86260479  0.66486401    -0.59800
N15         N  0.32968012  0.87597671  0.64606435    -0.06100
N16         N  0.31022173  0.88529078  0.63166481    -0.58800
N17         N  0.36101030  0.82148488  0.66404552    -0.03800
N18         N  0.36086082  0.79616931  0.66259358    -0.59900
Mn19       Mn  0.34134892  0.84193545  0.69422714     1.18400
C20         C  0.37390023  0.79091254  0.64092151     0.98400
C21         C  0.28835161  0.87657758  0.64394200     0.99100
N22         N  0.41796861  0.87508586  0.74045509    -0.06100
N23         N  0.43415501  0.86319421  0.75617452    -0.62400
N24         N  0.38809210  0.93047380  0.72381500    -0.04900
N25         N  0.38554543  0.95558244  0.72748738    -0.63100
N26         N  0.37568208  0.91755376  0.74172927    -0.05600
N27         N  0.36425277  0.93347597  0.75808243    -0.62600
N28         N  0.43051098  0.88794102  0.72260432    -0.04500
N29         N  0.45569603  0.88531191  0.72580417    -0.63300
Mn30       Mn  0.37612362  0.87552148  0.74209978     1.10700
C31         C  0.45749523  0.86942375  0.74652190     0.99600
C32         C  0.37029484  0.95700033  0.74865860     0.99700
N33         N  0.37580596  0.92204181  0.64546731    -0.05600
N34         N  0.36694774  0.94156453  0.63073301    -0.61000
N35         N  0.42989866  0.89059852  0.66354084    -0.04900
N36         N  0.45520454  0.89024333  0.66222663    -0.57700
N37         N  0.41927508  0.87787840  0.64432596    -0.06200
N38         N  0.43825527  0.86836285  0.62934719    -0.60500
N39         N  0.38895683  0.93200574  0.66475813    -0.05200
N40         N  0.38942105  0.95735610  0.66375838    -0.57700
Mn41       Mn  0.37448050  0.87708213  0.64294625     1.20200
Mn42       Mn  0.40957713  0.91046722  0.69363655     1.10100
Cl43       Cl  0.37533687  0.87631669  0.69254039    -0.85700
C44         C  0.37581147  0.96342275  0.64271621     0.96600
C45         C  0.46048449  0.87653215  0.64107445     0.96400
N46         N  0.21675031  0.86387111  0.82893449    -0.05800
N47         N  0.21995570  0.86653338  0.80374393    -0.58000
N48         N  0.23391867  0.83465005  0.88442943    -0.05500
N49         N  0.24829794  0.81858627  0.89812933    -0.60100
N50         N  0.21593964  0.82214726  0.87208343    -0.05100
N51         N  0.21764735  0.79714566  0.87690324    -0.57900
N52         N  0.23463986  0.87629647  0.84149811    -0.04800
N53         N  0.25045932  0.88787404  0.82531170    -0.60400
C54         C  0.24077756  0.88189090  0.80197512     0.96300
C55         C  0.23760929  0.79545323  0.89350962     0.96100
N56         N  0.21682429  0.88934670  0.93794655    -0.06000
N57         N  0.21958316  0.88610349  0.96307798    -0.58500
N58         N  0.23500182  0.91843591  0.88265390    -0.04100
N59         N  0.25072979  0.93421937  0.87045652    -0.59800
N60         N  0.21721527  0.93149394  0.89532961    -0.06100
N61         N  0.22034118  0.95655980  0.89221228    -0.58800
N62         N  0.23463825  0.87638910  0.92524554    -0.03800
N63         N  0.24998499  0.86382010  0.94131311    -0.59900
Mn64       Mn  0.23544620  0.87645088  0.88337395     1.18400
C65         C  0.24003573  0.86978829  0.96470957     0.98400
C66         C  0.24101568  0.95781081  0.87632890     0.99100
N67         N  0.15712835  0.82259698  0.87002052    -0.06100
N68         N  0.15537068  0.79730392  0.86930400    -0.62400
N69         N  0.13836939  0.87683828  0.83906390    -0.04900
N70         N  0.12345781  0.88586472  0.81987528    -0.63100
N71         N  0.15763204  0.86341667  0.82868640    -0.05600
N72         N  0.15643075  0.86292904  0.80334469    -0.62600
N73         N  0.13770235  0.83347752  0.88275165    -0.04500
N74         N  0.12205754  0.81467537  0.89097731    -0.63300
Mn75       Mn  0.18690983  0.84277777  0.84967312     1.10700
C76         C  0.13367686  0.79224700  0.88228253     0.99600
C77         C  0.13528737  0.87681482  0.79777571     0.99700
N78         N  0.15825348  0.93338267  0.89774673    -0.05600
N79         N  0.15674194  0.95868449  0.89903936    -0.61000
N80         N  0.13814703  0.88047479  0.92882956    -0.04900
N81         N  0.12222619  0.87368813  0.94809895    -0.57700
N82         N  0.15794356  0.89264337  0.93896209    -0.06200
N83         N  0.15619343  0.89432707  0.96422746    -0.60500
N84         N  0.13845943  0.92341843  0.88541248    -0.05200
N85         N  0.12278586  0.94287088  0.87808317    -0.57700
Mn86       Mn  0.18763133  0.91185709  0.91763254     1.20200
Mn87       Mn  0.13610922  0.87855329  0.88398660     1.10100
Cl88       Cl  0.18578265  0.87746927  0.88359917    -0.85700
C89         C  0.13482336  0.96468845  0.88685566     0.96600
C90         C  0.13411181  0.88258763  0.97000073     0.96400
N91         N  0.42643846  0.72067713  0.89512309    -0.05800
N92         N  0.45155768  0.72333742  0.89187706    -0.58000
N93         N  0.37179438  0.73971942  0.92488449    -0.05500
N94         N  0.36027228  0.75592278  0.94090769    -0.60100
N95         N  0.38439540  0.72171687  0.93770561    -0.05100
N96         N  0.38191197  0.72515527  0.96283080    -0.57900
N97         N  0.41367523  0.73856605  0.88228894    -0.04800
N98         N  0.42966316  0.75382230  0.86981427    -0.60400
C99         C  0.45308135  0.74378350  0.87567953     0.96300
C100        C  0.36647046  0.74626108  0.96438455     0.96100
N101        N  0.31725576  0.72160649  0.87128843    -0.06000
N102        N  0.29229359  0.72346058  0.87614714    -0.58500
N103        N  0.37203613  0.73867262  0.84087066    -0.04100
N104        N  0.38502860  0.75322646  0.82453666    -0.59800
N105        N  0.35938609  0.72081182  0.82848853    -0.06100
N106        N  0.36328596  0.72275161  0.80334089    -0.58800
N107        N  0.32992293  0.73943937  0.88368663    -0.03800
N108        N  0.31395873  0.75392112  0.89743555    -0.59900
Mn109      Mn  0.37180465  0.74004805  0.88287062     1.18400
C110        C  0.29074104  0.74338802  0.89276443     0.98400
C111        C  0.37959375  0.74278461  0.80136420     0.99100
N112        N  0.38589536  0.66273746  0.93917078    -0.06100
N113        N  0.38680071  0.66151173  0.96451048    -0.62400
N114        N  0.41637948  0.64214710  0.88564589    -0.04900
N115        N  0.43549426  0.62634137  0.87776351    -0.63100
N116        N  0.42680468  0.66166964  0.89802636    -0.05600
N117        N  0.45209688  0.65982809  0.89887501    -0.62600
N118        N  0.37310447  0.64328385  0.92914271    -0.04500
N119        N  0.36503822  0.62816744  0.94857255    -0.63300
Mn120      Mn  0.40606733  0.69171453  0.91768206     1.10700
C121        C  0.37389133  0.64013939  0.97045600     0.99600
C122        C  0.45759536  0.63798487  0.88633361     0.99700
N123        N  0.35720025  0.66192813  0.82864282    -0.05600
N124        N  0.35675211  0.66047846  0.80330603    -0.61000
N125        N  0.32653624  0.64351793  0.88296671    -0.04900
N126        N  0.30726489  0.62871213  0.89164186    -0.57700
N127        N  0.31625365  0.66303400  0.86990790    -0.06200
N128        N  0.29091415  0.66216832  0.86939034    -0.60500
N129        N  0.37006556  0.64243711  0.83926281    -0.05200
N130        N  0.37876623  0.62710074  0.82024238    -0.57700
Mn131      Mn  0.33732028  0.69192841  0.84932516     1.20200
Mn132      Mn  0.37149944  0.64075330  0.88427010     1.10100
Cl133      Cl  0.37171465  0.69039620  0.88353693    -0.85700
C134        C  0.37010106  0.63892784  0.79797236     0.96600
C135        C  0.28520461  0.64094121  0.88284402     0.96400
N136        N  0.32001887  0.03456914  0.89670464    -0.05800
N137        N  0.29500277  0.03149864  0.89331100    -0.58000
N138        N  0.37527827  0.01777252  0.92665481    -0.05500
N139        N  0.38851465  0.00329469  0.94305273    -0.60100
N140        N  0.36213562  0.03570729  0.93899745    -0.05100
N141        N  0.36597431  0.03395543  0.96411185    -0.57900
N142        N  0.33327144  0.01673607  0.88430145    -0.04800
N143        N  0.31770851  0.00110097  0.87200359    -0.60400
C144        C  0.29405095  0.01083409  0.87755247     0.96300
C145        C  0.38276246  0.01397169  0.96617819     0.96100
N146        N  0.42935589  0.03569387  0.87206278    -0.06000
N147        N  0.45447359  0.03367888  0.87590394    -0.58500
N148        N  0.37539355  0.01657097  0.84251074    -0.04100
N149        N  0.36450072  0.00025349  0.82653206    -0.59800
N150        N  0.38755941  0.03461842  0.82962499    -0.06100
N151        N  0.38541046  0.03107032  0.80449194    -0.58800
N152        N  0.41704201  0.01775524  0.88493372    -0.03800
N153        N  0.43335936  0.00305593  0.89799277    -0.59900
Mn154      Mn  0.37520708  0.01626465  0.88462019     1.18400
C155        C  0.45645768  0.01354839  0.89244919     0.98400
C156        C  0.37064635  0.00984683  0.80302112     0.99100
N157        N  0.35836108  0.09450482  0.93948422    -0.06100
N158        N  0.35686345  0.09635868  0.96478328    -0.62400
N159        N  0.32788831  0.11343546  0.88562449    -0.04900
N160        N  0.30857240  0.12906157  0.87792094    -0.63100
N161        N  0.31776291  0.09377705  0.89831074    -0.05600
N162        N  0.29244355  0.09538236  0.89955061    -0.62600
N163        N  0.37079463  0.11407353  0.92896519    -0.04500
N164        N  0.37798429  0.12991463  0.94798274    -0.63300
Mn165      Mn  0.33935490  0.06452096  0.91850864     1.10700
C166        C  0.36902307  0.11826347  0.97020147     0.99600
C167        C  0.28663616  0.11720764  0.88690320     0.99700
N168        N  0.38751208  0.09395185  0.82863363    -0.05600
N169        N  0.38800224  0.09535369  0.80326839    -0.61000
N170        N  0.41775668  0.11383205  0.88245890    -0.04900
N171        N  0.43666803  0.12898244  0.89104370    -0.57700
N172        N  0.42853018  0.09452053  0.86953933    -0.06200
N173        N  0.45384675  0.09589418  0.86901446    -0.60500
N174        N  0.37434901  0.11333197  0.83908277    -0.05200
N175        N  0.36553551  0.12851683  0.81995890    -0.57700
Mn176      Mn  0.40838780  0.06469720  0.84970431     1.20200
Mn177      Mn  0.37273589  0.11567251  0.88399220     1.10100
Cl178      Cl  0.37384953  0.06596884  0.88412677    -0.85700
C179        C  0.37439405  0.11674938  0.79779087     0.96600
C180        C  0.45903855  0.11721491  0.88230469     0.96400
N181        N  0.38754848  0.82641843  0.04113608    -0.05800
N182        N  0.38472994  0.80133223  0.03796815    -0.58000
N183        N  0.41611214  0.88203694  0.02480597    -0.05500
N184        N  0.43205505  0.89518553  0.01004668    -0.60100
N185        N  0.42878391  0.86931120  0.04276193    -0.05100
N186        N  0.45383125  0.87330693  0.04061905    -0.57900
N187        N  0.37508208  0.83939345  0.02319782    -0.04800
N188        N  0.36332613  0.82361220  0.00735378    -0.60400
C189        C  0.36928016  0.80009525  0.01708296     0.96300
C190        C  0.45535410  0.88985198  0.02043172     0.96100
N191        N  0.36071220  0.93550552  0.04179955    -0.06000
N192        N  0.36453442  0.96059821  0.03971527    -0.58500
N193        N  0.33250113  0.88058210  0.02278696    -0.04100
N194        N  0.31716055  0.86775911  0.00732875    -0.59800
N195        N  0.31906902  0.89292991  0.04047493    -0.06100
N196        N  0.29414348  0.88895812  0.03754404    -0.58800
N197        N  0.37396473  0.92292163  0.02416741    -0.03800
N198        N  0.38731067  0.93894262  0.00968164    -0.59900
Mn199      Mn  0.37438445  0.88121140  0.02288109     1.18400
C200        C  0.38150085  0.96220444  0.01989240     0.98400
C201        C  0.29346025  0.87294130  0.01707857     0.99100
N202        N  0.42796475  0.86603990  0.10171635    -0.06100
N203        N  0.45323390  0.86513374  0.10374637    -0.62400
N204        N  0.37428268  0.83479890  0.11964828    -0.04900
N205        N  0.36587656  0.81533904  0.13451047    -0.63100
N206        N  0.38786012  0.82475150  0.10037286    -0.05600
N207        N  0.38901544  0.79938639  0.10154207    -0.62600
N208        N  0.41687727  0.87841416  0.12118593    -0.04500
N209        N  0.43553137  0.88620473  0.13715280    -0.63300
Mn210      Mn  0.40825278  0.84641058  0.07145226     1.10700
C211        C  0.45807582  0.87760493  0.12565770     0.99600
C212        C  0.37540461  0.79341209  0.12266993     0.99700
N213        N  0.31671004  0.89422730  0.09952540    -0.05600
N214        N  0.29135580  0.89524308  0.10065676    -0.61000
N215        N  0.36948189  0.92486995  0.12036289    -0.04900
N216        N  0.37708791  0.94399989  0.13584405    -0.57700
N217        N  0.35691518  0.93535373  0.10068529    -0.06200
N218        N  0.35566319  0.96066114  0.10213593    -0.60500
N219        N  0.32683485  0.88136449  0.11923011    -0.05200
N220        N  0.30743680  0.87336698  0.13439932    -0.57700
Mn221      Mn  0.33812081  0.91470197  0.07054983     1.20200
Mn222      Mn  0.37181111  0.87982494  0.12219199     1.10100
Cl223      Cl  0.37305919  0.88045041  0.07253999    -0.85700
C224        C  0.28546794  0.88231964  0.12222305     0.96600
C225        C  0.36812858  0.96616283  0.12388310     0.96400
N226        N  0.53000979  0.89093800  0.82999683    -0.05800
N227        N  0.52805234  0.88765537  0.80482969    -0.58000
N228        N  0.51212130  0.92080169  0.88492091    -0.05500
N229        N  0.49770454  0.93731685  0.89806725    -0.60100
N230        N  0.53050777  0.93286684  0.87245197    -0.05100
N231        N  0.52907956  0.95795776  0.87664146    -0.57900
N232        N  0.51155721  0.87883782  0.84234765    -0.04800
N233        N  0.49649895  0.86686911  0.82588976    -0.60400
C234        C  0.50733277  0.87234481  0.80272718     0.96300
C235        C  0.50882162  0.96023290  0.89296085     0.96100
N236        N  0.52810186  0.86594855  0.93937824    -0.06000
N237        N  0.52612949  0.87024010  0.96440941    -0.58500
N238        N  0.51013961  0.83684519  0.88435146    -0.04100
N239        N  0.49503399  0.82114660  0.87152662    -0.59800
N240        N  0.52766783  0.82368080  0.89726033    -0.06100
N241        N  0.52497923  0.79865980  0.89368163    -0.58800
N242        N  0.51049495  0.87912913  0.92661316    -0.03800
N243        N  0.49604583  0.89288106  0.94262282    -0.59900
Mn244      Mn  0.51001462  0.87889979  0.88450719     1.18400
C245        C  0.50636553  0.88734249  0.96595735     0.98400
C246        C  0.50485661  0.79754247  0.87731308     0.99100
N247        N  0.58915249  0.93171709  0.87066703    -0.06100
N248        N  0.59069593  0.95702111  0.87006381    -0.62400
N249        N  0.60779988  0.87699095  0.84054684    -0.04900
N250        N  0.62269561  0.86735734  0.82157179    -0.63100
N251        N  0.58889328  0.89060622  0.82985467    -0.05600
N252        N  0.59032404  0.89065705  0.80449095    -0.62600
N253        N  0.60816379  0.92082773  0.88389111    -0.04500
N254        N  0.62329238  0.93968960  0.89267410    -0.63300
Mn255      Mn  0.55960196  0.91172303  0.85052220     1.10700
C256        C  0.61180944  0.96213465  0.88367571     0.99600
C257        C  0.61124587  0.87626481  0.79923030     0.99700
N258        N  0.58655399  0.82096204  0.89984512    -0.05600
N259        N  0.58756540  0.79559002  0.90076407    -0.61000
N260        N  0.60666581  0.87420926  0.93041650    -0.04900
N261        N  0.62195587  0.88192186  0.94964233    -0.57700
N262        N  0.58683561  0.86200878  0.94071457    -0.06200
N263        N  0.58798412  0.86115340  0.96607168    -0.60500
N264        N  0.60643069  0.83079169  0.88726981    -0.05200
N265        N  0.62159413  0.81119539  0.87932833    -0.57700
Mn266      Mn  0.55719220  0.84293805  0.91948747     1.20200
Mn267      Mn  0.60932756  0.87567686  0.88553861     1.10100
Cl268      Cl  0.55969730  0.87722927  0.88498609    -0.85700
C269        C  0.60925335  0.78941096  0.88805138     0.96600
C270        C  0.60971564  0.87348326  0.97172124     0.96400
N271        N  0.87146353  0.33376870  0.64699560    -0.05800
N272        N  0.88028995  0.31432627  0.63229833    -0.58000
N273        N  0.81741213  0.36523106  0.66537955    -0.05500
N274        N  0.79213408  0.36468780  0.66384121    -0.60100
N275        N  0.82799165  0.37749654  0.64565517    -0.05100
N276        N  0.80900296  0.38567648  0.63001237    -0.57900
N277        N  0.85833783  0.32381896  0.66651008    -0.04800
N278        N  0.85787131  0.29847080  0.66571019    -0.60400
C279        C  0.87144825  0.29250156  0.64453475     0.96300
C280        C  0.78681001  0.37732675  0.64196950     0.96100
N281        N  0.82989910  0.38105823  0.74196864    -0.06000
N282        N  0.81368125  0.39347810  0.75732877    -0.58500
N283        N  0.85931448  0.32542267  0.72534854    -0.04100
N284        N  0.86235960  0.30028629  0.72843653    -0.59800
N285        N  0.87186668  0.33807405  0.74311295    -0.06100
N286        N  0.88391364  0.32190511  0.75882328    -0.58800
N287        N  0.81734173  0.36836277  0.72423422    -0.03800
N288        N  0.79219209  0.37166831  0.72707985    -0.59900
Mn289      Mn  0.83789848  0.34554252  0.69540791     1.18400
C290        C  0.79035767  0.38774114  0.74748016     0.98400
C291        C  0.87806474  0.29855329  0.74907836     0.99100
N292        N  0.87391050  0.42331472  0.64544001    -0.06100
N293        N  0.86428635  0.44237675  0.63062520    -0.62400
N294        N  0.92796439  0.39243338  0.66552195    -0.04900
N295        N  0.95330754  0.39259138  0.66441805    -0.63100
N296        N  0.91776700  0.37942464  0.64626605    -0.05600
N297        N  0.93710288  0.37035152  0.63143057    -0.62600
N298        N  0.88690236  0.43384377  0.66452634    -0.04500
N299        N  0.88661772  0.45917404  0.66326748    -0.63300
Mn300      Mn  0.87284399  0.37848791  0.64398202     1.10700
C301        C  0.87266820  0.46457084  0.64228279     0.99600
C302        C  0.95910403  0.37894170  0.64332889     0.99700
N303        N  0.91383008  0.37923738  0.74252885    -0.05600
N304        N  0.92974242  0.36758977  0.75872822    -0.61000
N305        N  0.88470237  0.43432129  0.72360790    -0.04900
N306        N  0.88230439  0.45953204  0.72675407    -0.57700
N307        N  0.87183121  0.42190979  0.74154470    -0.06200
N308        N  0.86016415  0.43822661  0.75729185    -0.60500
N309        N  0.92674507  0.39150117  0.72451071    -0.05200
N310        N  0.95183963  0.38863594  0.72796095    -0.57700
Mn311      Mn  0.87185234  0.38005432  0.74317527     1.20200
Mn312      Mn  0.90680966  0.41324768  0.69449696     1.10100
Cl313      Cl  0.87238800  0.37932252  0.69359473    -0.85700
C314        C  0.95324939  0.37332044  0.74907851     0.96600
C315        C  0.86654351  0.46148869  0.74753856     0.96400
N316        N  0.92546220  0.22319654  0.89560821    -0.05800
N317        N  0.95050007  0.22661263  0.89257525    -0.58000
N318        N  0.87007728  0.24005731  0.92543598    -0.05500
N319        N  0.85728275  0.25517604  0.94155548    -0.60100
N320        N  0.88310717  0.22224943  0.93807559    -0.05100
N321        N  0.87967083  0.22477076  0.96320700    -0.57900
N322        N  0.91226838  0.24095611  0.88303350    -0.04800
N323        N  0.92790355  0.25693421  0.87098280    -0.60400
C324        C  0.95156721  0.24743416  0.87684119     0.96300
C325        C  0.86317076  0.24506756  0.96491325     0.96100
N326        N  0.81633521  0.22091391  0.87193399    -0.06000
N327        N  0.79138499  0.22193327  0.87711665    -0.58500
N328        N  0.87050926  0.24004111  0.84166660    -0.04100
N329        N  0.88273777  0.25542050  0.82554179    -0.59800
N330        N  0.85837743  0.22198143  0.82905468    -0.06100
N331        N  0.86188410  0.22461022  0.80391581    -0.58800
N332        N  0.82857172  0.23898086  0.88441929    -0.03800
N333        N  0.81235834  0.25274652  0.89856492    -0.59900
Mn334      Mn  0.87032004  0.24096534  0.88354656     1.18400
C335        C  0.78944076  0.24156778  0.89407317     0.98400
C336        C  0.87743559  0.24526603  0.80223446     0.99100
N337        N  0.88682679  0.16336936  0.93878477    -0.06100
N338        N  0.88873982  0.16135905  0.96400419    -0.62400
N339        N  0.91785216  0.14416328  0.88543225    -0.04900
N340        N  0.93737922  0.12845724  0.87837655    -0.63100
N341        N  0.92768386  0.16404457  0.89776448    -0.05600
N342        N  0.95296955  0.16253801  0.89930989    -0.62600
N343        N  0.87488674  0.14348318  0.92854256    -0.04500
N344        N  0.86853868  0.12721615  0.94765713    -0.63300
Mn345      Mn  0.90592363  0.19330169  0.91768649     1.10700
C346        C  0.87741874  0.13901410  0.96959275     0.99600
C347        C  0.95910398  0.14054796  0.88729011     0.99700
N348        N  0.85802242  0.16297228  0.82851317    -0.05600
N349        N  0.85731188  0.16154662  0.80318975    -0.61000
N350        N  0.82790842  0.14294104  0.88244990    -0.04900
N351        N  0.80906985  0.12731334  0.89063165    -0.57700
N352        N  0.81707057  0.16232283  0.86962697    -0.06200
N353        N  0.79179607  0.16057075  0.86879035    -0.60500
N354        N  0.87135775  0.14368639  0.83894168    -0.05200
N355        N  0.88008219  0.12850855  0.81983025    -0.57700
Mn356      Mn  0.83724251  0.19214708  0.84950534     1.20200
Mn357      Mn  0.87300773  0.14153966  0.88381594     1.10100
Cl358      Cl  0.87171350  0.19125447  0.88358365    -0.85700
C359        C  0.87096897  0.14022573  0.79770752     0.96600
C360        C  0.78668422  0.13891652  0.88179528     0.96400
N361        N  0.71685849  0.36339726  0.82910106    -0.05800
N362        N  0.71887544  0.36755294  0.80399999    -0.58000
N363        N  0.73477557  0.33343763  0.88431254    -0.05500
N364        N  0.74871596  0.31724405  0.89834780    -0.60100
N365        N  0.71687118  0.32107338  0.87172515    -0.05100
N366        N  0.71811924  0.29610680  0.87673163    -0.57900
N367        N  0.73481735  0.37572466  0.84165267    -0.04800
N368        N  0.74952505  0.38875600  0.82550028    -0.60400
C369        C  0.73907180  0.38367942  0.80225683     0.96300
C370        C  0.73774785  0.29422907  0.89365198     0.96100
N371        N  0.71728714  0.38789625  0.93836209    -0.06000
N372        N  0.72026525  0.38486447  0.96349477    -0.58500
N373        N  0.73477746  0.41720155  0.88307939    -0.04100
N374        N  0.75007026  0.43302940  0.87044387    -0.59800
N375        N  0.71691209  0.43013966  0.89577194    -0.06100
N376        N  0.71964235  0.45522789  0.89227078    -0.58800
N377        N  0.73521744  0.37513381  0.92560315    -0.03800
N378        N  0.75090166  0.36296399  0.94166370    -0.59900
Mn379      Mn  0.73587821  0.37531751  0.88362624     1.18400
C380        C  0.74099973  0.36892241  0.96509822     0.98400
C381        C  0.74011054  0.45653909  0.87607745     0.99100
N382        N  0.65842946  0.32081098  0.87000346    -0.06100
N383        N  0.65725706  0.29550750  0.86918289    -0.62400
N384        N  0.63839342  0.37459933  0.83955727    -0.04900
N385        N  0.62287539  0.38286259  0.82050564    -0.63100
N386        N  0.65797281  0.36181255  0.82900668    -0.05600
N387        N  0.65643234  0.36101790  0.80369986    -0.62600
N388        N  0.63895002  0.33118614  0.88304069    -0.04500
N389        N  0.62383784  0.31202789  0.89138075    -0.63300
Mn390      Mn  0.68763927  0.34160317  0.84969598     1.10700
C391        C  0.63587304  0.28994755  0.88241136     0.99600
C392        C  0.63473010  0.37405329  0.79831238     0.99700
N393        N  0.65783942  0.43110940  0.89850233    -0.05600
N394        N  0.65602039  0.45639765  0.89961667    -0.61000
N395        N  0.63875756  0.37771482  0.92942788    -0.04900
N396        N  0.62316800  0.37032203  0.94875496    -0.57700
N397        N  0.65836378  0.39019503  0.93954984    -0.06200
N398        N  0.65680501  0.39150811  0.96484868    -0.60500
N399        N  0.63826260  0.42084905  0.88606818    -0.05200
N400        N  0.62245666  0.44004607  0.87842289    -0.57700
Mn401      Mn  0.68766170  0.41003562  0.91822387     1.20200
Mn402      Mn  0.63652691  0.37606727  0.88453741     1.29300
Cl403      Cl  0.68620294  0.37580764  0.88402609    -0.85700
C404        C  0.63414884  0.46203519  0.88718001     0.96600
C405        C  0.63505469  0.37920379  0.97067359     0.96400
N406        N  0.02943303  0.39385007  0.82992112    -0.05800
N407        N  0.02630323  0.39079700  0.80483754    -0.58000
N408        N  0.01332438  0.42367344  0.88536260    -0.05500
N409        N  0.99908249  0.44014774  0.89871498    -0.60100
N410        N  0.03127738  0.43577006  0.87229920    -0.05100
N411        N  0.02970703  0.46090213  0.87629839    -0.57900
N412        N  0.01130477  0.38197021  0.84295337    -0.04800
N413        N  0.99534453  0.37036229  0.82714236    -0.60400
C414        C  0.00523606  0.37581279  0.80359678     0.96300
C415        C  0.00984822  0.46310989  0.89314844     0.96100
N416        N  0.03061433  0.36838735  0.93920038    -0.06000
N417        N  0.02879798  0.37186029  0.96437413    -0.58500
N418        N  0.01092226  0.33990918  0.88455209    -0.04100
N419        N  0.99501062  0.32454097  0.87234371    -0.59800
N420        N  0.02871615  0.32642618  0.89674130    -0.06100
N421        N  0.02536625  0.30145589  0.89329972    -0.58800
N422        N  0.01280280  0.38182520  0.92700850    -0.03800
N423        N  0.99835134  0.39490797  0.94355224    -0.59900
Mn424      Mn  0.01113912  0.38187261  0.88499136     1.18400
C425        C  0.00891021  0.38875783  0.96663249     0.98400
C426        C  0.00454930  0.30075399  0.87774393     0.99100
N427        N  0.09000031  0.43414542  0.86924093    -0.06100
N428        N  0.09155316  0.45944639  0.86877741    -0.62400
N429        N  0.10787556  0.37968275  0.83874470    -0.04900
N430        N  0.12269934  0.37041193  0.81956434    -0.63100
N431        N  0.08863438  0.39310450  0.82838043    -0.05600
N432        N  0.08978907  0.39333892  0.80299511    -0.62600
N433        N  0.10922113  0.42317582  0.88212580    -0.04500
N434        N  0.12450391  0.44196559  0.89076721    -0.63300
Mn435      Mn  0.05982243  0.41440765  0.84966536     1.10700
C436        C  0.11289546  0.46445193  0.88207019     0.99600
C437        C  0.11088122  0.37928148  0.79743924     0.99700
N438        N  0.08785559  0.32345350  0.89785223    -0.05600
N439        N  0.08919721  0.29812133  0.89911999    -0.61000
N440        N  0.10916798  0.37587477  0.92851348    -0.04900
N441        N  0.12549238  0.38215440  0.94744216    -0.57700
N442        N  0.08936924  0.36382893  0.93905808    -0.06200
N443        N  0.09149845  0.36175685  0.96427265    -0.60500
N444        N  0.10763883  0.33335034  0.88518125    -0.05200
N445        N  0.12308527  0.31388172  0.87753807    -0.57700
Mn446      Mn  0.05902114  0.34534691  0.91832814     1.20200
Mn447      Mn  0.11050350  0.37808059  0.88359852     1.10100
Cl448      Cl  0.06081859  0.37988916  0.88409903    -0.85700
C449        C  0.11097969  0.29209500  0.88651052     0.96600
C450        C  0.11382948  0.37309960  0.96960963     0.96400
N451        N  0.88747325  0.32388217  0.03996410    -0.05800
N452        N  0.88304144  0.29899009  0.03740064    -0.58000
N453        N  0.91744376  0.37901303  0.02380579    -0.05500
N454        N  0.93351190  0.39256680  0.00955681    -0.60100
N455        N  0.92996116  0.36577246  0.04149854    -0.05100
N456        N  0.95502915  0.36983199  0.03970876    -0.57900
N457        N  0.87525980  0.33728196  0.02216774    -0.04800
N458        N  0.86206477  0.32196412  0.00701216    -0.60400
C459        C  0.86689516  0.29831314  0.01704365     0.96300
C460        C  0.95671803  0.38689685  0.01998109     0.96100
N461        N  0.86326523  0.43332572  0.04224478    -0.06000
N462        N  0.86744925  0.45838164  0.04055336    -0.58500
N463        N  0.83384327  0.37931101  0.02253483    -0.04100
N464        N  0.81819422  0.36679307  0.00714458    -0.59800
N465        N  0.82076795  0.39147760  0.04059665    -0.06100
N466        N  0.79576532  0.38769103  0.03798759    -0.58800
N467        N  0.87618547  0.42084280  0.02429947    -0.03800
N468        N  0.88964845  0.43692053  0.00998229    -0.59900
Mn469      Mn  0.87569490  0.37912307  0.02227444     1.18400
C470        C  0.88428917  0.46009875  0.02063387     0.98400
C471        C  0.79467543  0.37198129  0.01729953     0.99100
N472        N  0.92970331  0.36163156  0.10030353    -0.06100
N473        N  0.95495841  0.35988933  0.10198346    -0.62400
N474        N  0.87586868  0.33148922  0.11872383    -0.04900
N475        N  0.86800649  0.31206401  0.13392256    -0.63100
N476        N  0.88871970  0.32142840  0.09898089    -0.05600
N477        N  0.88987373  0.29607779  0.10012074    -0.62600
N478        N  0.91923407  0.37407964  0.12006689    -0.04500
N479        N  0.93836019  0.38106886  0.13586905    -0.63300
Mn480      Mn  0.90915295  0.34295736  0.07007365     1.10700
C481        C  0.96048624  0.37190046  0.12396401     0.99600
C482        C  0.87704126  0.29014425  0.12172575     0.99700
N483        N  0.81904266  0.39192667  0.09969632    -0.05600
N484        N  0.79370326  0.39315550  0.10098410    -0.61000
N485        N  0.87222787  0.42148221  0.12061262    -0.04900
N486        N  0.87931358  0.44028768  0.13674436    -0.57700
N487        N  0.85980456  0.43234123  0.10104439    -0.06200
N488        N  0.85821434  0.45756748  0.10313981    -0.60500
N489        N  0.82915968  0.37863187  0.11912438    -0.05200
N490        N  0.80977729  0.37051114  0.13423540    -0.57700
Mn491      Mn  0.84050017  0.41246383  0.07080269     1.20200
Mn492      Mn  0.87412713  0.37640939  0.12170948     1.10100
Cl493      Cl  0.87483609  0.37770283  0.07200175    -0.85700
C494        C  0.78783047  0.37989186  0.12234763     0.96600
C495        C  0.87027063  0.46264218  0.12519736     0.96400
N496        N  0.81967809  0.53159453  0.89756117    -0.05800
N497        N  0.79472204  0.52860529  0.89385961    -0.58000
N498        N  0.87518979  0.51536044  0.92731456    -0.05500
N499        N  0.88895920  0.50112083  0.94349389    -0.60100
N500        N  0.86171015  0.53287227  0.93990310    -0.05100
N501        N  0.86581207  0.53104576  0.96497601    -0.57900
N502        N  0.83311482  0.51413902  0.88483144    -0.04800
N503        N  0.81766013  0.49877146  0.87200303    -0.60400
C504        C  0.79391586  0.50836659  0.87761034     0.96300
C505        C  0.88312775  0.51148344  0.96674798     0.96100
N506        N  0.92881740  0.53602698  0.87325405    -0.06000
N507        N  0.95389680  0.53511166  0.87754130    -0.58500
N508        N  0.87529794  0.51607026  0.84304478    -0.04100
N509        N  0.86365444  0.50076816  0.82658025    -0.59800
N510        N  0.88712488  0.53469734  0.83068865    -0.06100
N511        N  0.88398939  0.53262864  0.80551944    -0.58800
N512        N  0.91705051  0.51749788  0.88580114    -0.03800
N513        N  0.93378665  0.50348407  0.89910264    -0.59900
Mn514      Mn  0.87518294  0.51468254  0.88520515     1.18400
C515        C  0.95650211  0.51501849  0.89400833     0.98400
C516        C  0.86904991  0.51164821  0.80341977     0.99100
N517        N  0.85675662  0.59160941  0.94087660    -0.06100
N518        N  0.85499773  0.59319584  0.96615361    -0.62400
N519        N  0.82583910  0.61055401  0.88733054    -0.04900
N520        N  0.80616834  0.62571552  0.87965108    -0.63100
N521        N  0.81618978  0.59050541  0.89978434    -0.05600
N522        N  0.79083467  0.59139089  0.90085019    -0.62600
N523        N  0.86854039  0.61171198  0.93060452    -0.04500
N524        N  0.87498015  0.62766943  0.94976600    -0.63300
Mn525      Mn  0.83840151  0.56151677  0.91970069     1.10700
C526        C  0.86627617  0.61549678  0.97177077     0.99600
C527        C  0.78452990  0.61317473  0.88836165     0.99700
N528        N  0.88594515  0.59357422  0.83026747    -0.05600
N529        N  0.88621456  0.59499296  0.80490591    -0.61000
N530        N  0.91567293  0.61347074  0.88437647    -0.04900
N531        N  0.93435530  0.62882957  0.89314630    -0.57700
N532        N  0.92678742  0.59453628  0.87122465    -0.06200
N533        N  0.95205171  0.59632874  0.87066129    -0.60500
N534        N  0.87214529  0.61241727  0.84083360    -0.05200
N535        N  0.86260097  0.62725942  0.82177742    -0.57700
Mn536      Mn  0.90733075  0.56466530  0.85113724     1.20200
Mn537      Mn  0.87053413  0.61408340  0.88578576     1.10100
Cl538      Cl  0.87277434  0.56440065  0.88544464    -0.85700
C539        C  0.87175965  0.61584074  0.79952299     0.96600
C540        C  0.95691955  0.61752670  0.88421107     0.96400
N541        N  0.83050992  0.87679204  0.24880014    -0.05800
N542        N  0.81440995  0.88979773  0.26381980    -0.58000
N543        N  0.86023787  0.82171347  0.23041264    -0.05500
N544        N  0.86394584  0.79655371  0.23263144    -0.60100
N545        N  0.87299846  0.83409217  0.24824432    -0.05100
N546        N  0.88585378  0.81770304  0.26307804    -0.57900
N547        N  0.81784621  0.86442698  0.23088892    -0.04800
N548        N  0.79277208  0.86856654  0.23323117    -0.60400
C549        C  0.79110179  0.88470618  0.25355506     0.96300
C550        C  0.88025846  0.79452066  0.25279077     0.96100
N551        N  0.87048514  0.83164714  0.15190342    -0.06000
N552        N  0.87846605  0.81248219  0.13635399    -0.58500
N553        N  0.81671040  0.86259006  0.17194308    -0.04100
N554        N  0.79141198  0.86158967  0.17051346    -0.59800
N555        N  0.82694606  0.87524003  0.15225183    -0.06100
N556        N  0.80770474  0.88313021  0.13676485    -0.58800
N557        N  0.85784218  0.82129001  0.17153354    -0.03800
N558        N  0.85693086  0.79598761  0.17000317    -0.59900
Mn559      Mn  0.83797443  0.84234460  0.20129247     1.18400
C560        C  0.86971616  0.79039488  0.14824936     0.98400
C561        C  0.78570369  0.87432900  0.14876241     0.99100
N562        N  0.91450203  0.87581066  0.24827766    -0.06100
N563        N  0.93082918  0.86443042  0.26426482    -0.62400
N564        N  0.88452884  0.93083929  0.23067575    -0.04900
N565        N  0.88199332  0.95598448  0.23399342    -0.63100
N566        N  0.87219610  0.91816414  0.24881994    -0.05600
N567        N  0.86080654  0.93431692  0.26498751    -0.62600
N568        N  0.92695336  0.88853213  0.23024703    -0.04500
N569        N  0.95213590  0.88626738  0.23348353    -0.63300
Mn570      Mn  0.87251708  0.87612843  0.24944938     1.10700
C571        C  0.95410640  0.87081811  0.25446838     0.99600
C572        C  0.86679886  0.95770544  0.25516573     0.99700
N573        N  0.87339080  0.92146198  0.15184921    -0.05600
N574        N  0.86597251  0.94063531  0.13596342    -0.61000
N575        N  0.92706973  0.89059764  0.17107415    -0.04900
N576        N  0.95231224  0.89186568  0.16912979    -0.57700
N577        N  0.91672374  0.87811577  0.15152614    -0.06200
N578        N  0.93583674  0.87065118  0.13559092    -0.60500
N579        N  0.88592025  0.93171899  0.17141934    -0.05200
N580        N  0.88725217  0.95698267  0.16951944    -0.57700
Mn581      Mn  0.87187240  0.87660469  0.14987693     1.20200
Mn582      Mn  0.90621579  0.91054297  0.20086938     1.10100
Cl583      Cl  0.87215768  0.87642003  0.19967236    -0.85700
C584        C  0.87487656  0.96262346  0.14760809     0.96600
C585        C  0.95786240  0.87950844  0.14720437     0.96400
N586        N  0.92835289  0.71620767  0.39920469    -0.05800
N587        N  0.95345994  0.72046655  0.39887052    -0.58000
N588        N  0.87327361  0.73486386  0.42773979    -0.05500
N589        N  0.86256355  0.75185972  0.44341230    -0.60100
N590        N  0.88565294  0.71686903  0.44081598    -0.05100
N591        N  0.88387813  0.72125626  0.46589341    -0.57900
N592        N  0.91589987  0.73430805  0.38634962    -0.04800
N593        N  0.93212896  0.75132804  0.37681227    -0.60400
C594        C  0.95541385  0.74217487  0.38443221     0.96300
C595        C  0.86897712  0.74285876  0.46701934     0.96100
N596        N  0.81894878  0.71829610  0.37312257    -0.06000
N597        N  0.79384152  0.72171333  0.37608658    -0.58500
N598        N  0.87460902  0.73456053  0.34394301    -0.04100
N599        N  0.88744156  0.74958102  0.32794298    -0.59800
N600        N  0.86163099  0.71722399  0.33115200    -0.06100
N601        N  0.86516967  0.72002400  0.30603748    -0.58800
N602        N  0.83175881  0.73578302  0.38585688    -0.03800
N603        N  0.81570485  0.75160544  0.39796658    -0.59900
Mn604      Mn  0.87383003  0.73561631  0.38586892     1.18400
C605        C  0.79226708  0.74225856  0.39193827     0.98400
C606        C  0.88164818  0.73996521  0.30451127     0.99100
N607        N  0.88654641  0.65737328  0.44094723    -0.06100
N608        N  0.88722325  0.65573338  0.46626578    -0.62400
N609        N  0.91683042  0.63803167  0.38650475    -0.04900
N610        N  0.93584632  0.62346278  0.37636188    -0.63100
N611        N  0.92745256  0.65682769  0.39984872    -0.05600
N612        N  0.95277726  0.65556980  0.39928487    -0.62600
N613        N  0.87350594  0.63830679  0.43048473    -0.04500
N614        N  0.86493084  0.62310507  0.44964641    -0.63300
Mn615      Mn  0.90715781  0.68666484  0.42041745     1.10700
C616        C  0.87386703  0.63455255  0.47179569     0.99600
C617        C  0.95808462  0.63491978  0.38481314     0.99700
N618        N  0.85806602  0.65847178  0.33015328    -0.05600
N619        N  0.85722612  0.65717796  0.30481728    -0.61000
N620        N  0.82696258  0.63966089  0.38403456    -0.04900
N621        N  0.80750853  0.62474059  0.39207615    -0.57700
N622        N  0.81695237  0.65952786  0.37128239    -0.06200
N623        N  0.79160273  0.65877560  0.37037547    -0.60500
N624        N  0.87050005  0.63858862  0.34049602    -0.05200
N625        N  0.87849304  0.62310208  0.32128631    -0.57700
Mn626      Mn  0.83874502  0.68845383  0.35127594     1.20200
Mn627      Mn  0.87194793  0.63653523  0.38545407     1.10100
Cl628      Cl  0.87293245  0.68611158  0.38583200    -0.85700
C629        C  0.86988277  0.63529506  0.29917999     0.96600
C630        C  0.78560748  0.63725204  0.38325881     0.96400
N631        N  0.71361841  0.86572501  0.33122340    -0.05800
N632        N  0.71640458  0.86975561  0.30617196    -0.58000
N633        N  0.73186218  0.83522051  0.38561540    -0.05500
N634        N  0.74766480  0.81910977  0.39762327    -0.60100
N635        N  0.71433991  0.82252652  0.37281403    -0.05100
N636        N  0.71776600  0.79737513  0.37562104    -0.57900
N637        N  0.73102421  0.87841430  0.34422272    -0.04800
N638        N  0.74605523  0.89150966  0.32846772    -0.60400
C639        C  0.73640170  0.88620890  0.30494804     0.96300
C640        C  0.73833440  0.79572818  0.39147826     0.96100
N641        N  0.71316240  0.88861196  0.44097944    -0.06000
N642        N  0.71735865  0.88662055  0.46606076    -0.58500
N643        N  0.73128606  0.91921070  0.38701818    -0.04100
N644        N  0.74856136  0.93536754  0.37783200    -0.59800
N645        N  0.71320922  0.93170519  0.39984534    -0.06100
N646        N  0.71769556  0.95675953  0.39984285    -0.58800
N647        N  0.73112512  0.87616419  0.42793215    -0.03800
N648        N  0.74792808  0.86520123  0.44364821    -0.59900
Mn649      Mn  0.73205053  0.87717996  0.38607827     1.18400
C650        C  0.73880332  0.87152134  0.46724947     0.98400
C651        C  0.73954093  0.95864686  0.38564820     0.99100
N652        N  0.65528474  0.82122739  0.37107973    -0.06100
N653        N  0.65424354  0.79586647  0.37029506    -0.62400
N654        N  0.63500989  0.87518992  0.34057809    -0.04900
N655        N  0.61949760  0.88325635  0.32142813    -0.63100
N656        N  0.65477100  0.86260552  0.33017285    -0.05600
N657        N  0.65336986  0.86175354  0.30484827    -0.62600
N658        N  0.63559296  0.83148507  0.38393470    -0.04500
N659        N  0.62054503  0.81221495  0.39218636    -0.63300
Mn660      Mn  0.68457592  0.84280771  0.35112436     1.10700
C661        C  0.63274038  0.79013759  0.38337527     0.99600
C662        C  0.63155120  0.87454233  0.29929598     0.99700
N663        N  0.65386882  0.93167810  0.40021144    -0.05600
N664        N  0.65271580  0.95702657  0.40013661    -0.61000
N665        N  0.63447055  0.87795159  0.43049689    -0.04900
N666        N  0.61880054  0.87006892  0.44957623    -0.57700
N667        N  0.65380943  0.89051031  0.44102249    -0.06200
N668        N  0.65194767  0.89149984  0.46630540    -0.60500
N669        N  0.63487104  0.92139137  0.38688932    -0.05200
N670        N  0.62024627  0.94065939  0.37731206    -0.57700
Mn671      Mn  0.68338747  0.91073732  0.42067268     1.20200
Mn672      Mn  0.63290391  0.87651551  0.38551148     1.10100
Cl673      Cl  0.68251569  0.87680733  0.38587993    -0.85700
C674        C  0.63190681  0.96269649  0.38601425     0.96600
C675        C  0.63031200  0.87887286  0.47174224     0.96400
N676        N  0.03213134  0.89143273  0.33320808    -0.05800
N677        N  0.02842261  0.88836761  0.30820993    -0.58000
N678        N  0.01600933  0.92093249  0.38864233    -0.05500
N679        N  0.00067263  0.93707673  0.40124073    -0.60100
N680        N  0.03335843  0.93361498  0.37530614    -0.05100
N681        N  0.03027282  0.95875447  0.37835444    -0.57900
N682        N  0.01490344  0.87867273  0.34665922    -0.04800
N683        N  0.99902046  0.86649374  0.33121487    -0.60400
C684        C  0.00799934  0.87248001  0.30743425     0.96300
C685        C  0.01012943  0.96045932  0.39490325     0.96100
N686        N  0.03619081  0.86644840  0.44268441    -0.06000
N687        N  0.03396422  0.86953373  0.46792641    -0.58500
N688        N  0.01594527  0.83670343  0.38912084    -0.04100
N689        N  0.99885904  0.82068921  0.37958443    -0.59800
N690        N  0.03436125  0.82388150  0.40109985    -0.06100
N691        N  0.03032581  0.79876426  0.40012443    -0.58800
N692        N  0.01785458  0.87921022  0.43053158    -0.03800
N693        N  0.00273143  0.89147041  0.44704016    -0.59900
Mn694      Mn  0.01535914  0.87888054  0.38867645     1.18400
C695        C  0.01328217  0.88555492  0.47012551     0.98400
C696        C  0.00834131  0.79719238  0.38632417     0.99100
N697        N  0.09236657  0.93440126  0.37070471    -0.06100
N698        N  0.09377426  0.95973093  0.36958381    -0.62400
N699        N  0.11101340  0.88050312  0.33924890    -0.04900
N700        N  0.12573954  0.87219914  0.31952982    -0.63100
N701        N  0.09113436  0.89348592  0.32960280    -0.05600
N702        N  0.09174838  0.89435974  0.30419811    -0.62600
N703        N  0.11243976  0.92382449  0.38258260    -0.04500
N704        N  0.12815342  0.94286903  0.38979880    -0.63300
Mn705      Mn  0.06217267  0.91341686  0.35205274     1.10700
C706        C  0.11591913  0.96514546  0.38141069     0.99600
C707        C  0.11316964  0.88116012  0.29782059     0.99700
N708        N  0.09367074  0.82326085  0.39930886    -0.05600
N709        N  0.09453730  0.79788633  0.39886112    -0.61000
N710        N  0.11406913  0.87701857  0.42918501    -0.04900
N711        N  0.12950076  0.88581660  0.44785251    -0.57700
N712        N  0.09522401  0.86400868  0.44032463    -0.06200
N713        N  0.09722080  0.86352736  0.46560214    -0.60500
N714        N  0.11230622  0.83364964  0.38530461    -0.05200
N715        N  0.12634255  0.81440305  0.37483745    -0.57700
Mn716      Mn  0.06496559  0.84420984  0.42101976     1.20200
Mn717      Mn  0.11452933  0.87869976  0.38407758     1.10100
Cl718      Cl  0.06493702  0.87877445  0.38641563    -0.85700
C719        C  0.11476808  0.79225076  0.38374623     0.96600
C720        C  0.11841963  0.87697462  0.47042351     0.96400
N721        N  0.82053734  0.03869051  0.40138096    -0.05800
N722        N  0.79547593  0.03430718  0.40079690    -0.58000
N723        N  0.87611042  0.02257329  0.43043805    -0.05500
N724        N  0.88841016  0.00744446  0.44691302    -0.60100
N725        N  0.86336354  0.04089697  0.44262002    -0.05100
N726        N  0.86649641  0.03865526  0.46784956    -0.57900
N727        N  0.83340896  0.02033115  0.38937394    -0.04800
N728        N  0.81752455  0.00295112  0.38019680    -0.60400
C729        C  0.79402977  0.01218176  0.38718554     0.96300
C730        C  0.88254123  0.01798636  0.47001792     0.96100
N731        N  0.93005102  0.03782374  0.37483548    -0.06000
N732        N  0.95519084  0.03458579  0.37781787    -0.58500
N733        N  0.87490484  0.01930743  0.34666650    -0.04100
N734        N  0.86258036  0.00331713  0.33146547    -0.59800
N735        N  0.88754324  0.03645249  0.33299037    -0.06100
N736        N  0.88424323  0.03255960  0.30804741    -0.58800
N737        N  0.91734995  0.02059776  0.38830872    -0.03800
N738        N  0.93341200  0.00523843  0.40094373    -0.59900
Mn739      Mn  0.87544852  0.01994608  0.38862401     1.18400
C740        C  0.95680708  0.01450146  0.39449178     0.98400
C741        C  0.86833575  0.01212300  0.30757791     0.99100
N742        N  0.86061017  0.09991160  0.44018890    -0.06100
N743        N  0.86031807  0.10193140  0.46547557    -0.62400
N744        N  0.82982463  0.11674960  0.38530618    -0.04900
N745        N  0.81042900  0.13077645  0.37509115    -0.63100
N746        N  0.81961870  0.09807086  0.39940023    -0.05600
N747        N  0.79424322  0.09889009  0.39923928    -0.62600
N748        N  0.87349424  0.11877454  0.42892855    -0.04500
N749        N  0.88239712  0.13424285  0.44753354    -0.63300
Mn750      Mn  0.84084351  0.06950403  0.42103932     1.10700
C751        C  0.87376158  0.12316532  0.47020396     0.99600
C752        C  0.78839228  0.11913684  0.38422259     0.99700
N753        N  0.88947985  0.09551999  0.32912871    -0.05600
N754        N  0.89012319  0.09600740  0.30370161    -0.61000
N755        N  0.92003650  0.11697073  0.38210493    -0.04900
N756        N  0.93907685  0.13252618  0.38965985    -0.57700
N757        N  0.93063436  0.09695358  0.37012942    -0.06200
N758        N  0.95597995  0.09826861  0.36926083    -0.60500
N759        N  0.87648156  0.11539540  0.33879397    -0.05200
N760        N  0.86795792  0.12998060  0.31904351    -0.57700
Mn761      Mn  0.90964537  0.06663410  0.35157969     1.20200
Mn762      Mn  0.87490586  0.11907035  0.38374214     1.10100
Cl763      Cl  0.87516991  0.06949940  0.38616988    -0.85700
C764        C  0.87677728  0.11734353  0.29729541     0.96600
C765        C  0.96137840  0.12029310  0.38134957     0.96400
N766        N  0.88905552  0.82613403  0.54143099    -0.05800
N767        N  0.88631904  0.80108284  0.53829297    -0.58000
N768        N  0.91910274  0.88124859  0.52574519    -0.05500
N769        N  0.93600766  0.89356756  0.51124210    -0.60100
N770        N  0.93095730  0.86777876  0.54375425    -0.05100
N771        N  0.95619171  0.87046585  0.54202852    -0.57900
N772        N  0.87709994  0.83919728  0.52318555    -0.04800
N773        N  0.86577263  0.82328890  0.50705075    -0.60400
C774        C  0.87150955  0.79973314  0.51705434     0.96300
C775        C  0.95891179  0.88691302  0.52198471     0.96100
N776        N  0.86335664  0.93561888  0.54357973    -0.06000
N777        N  0.86617114  0.96084398  0.54176231    -0.58500
N778        N  0.83476950  0.88164116  0.52318408    -0.04100
N779        N  0.81896901  0.86988408  0.50727747    -0.59800
N780        N  0.82164137  0.89372575  0.54130808    -0.06100
N781        N  0.79661771  0.89064743  0.53828257    -0.58800
N782        N  0.87678201  0.92363100  0.52561826    -0.03800
N783        N  0.88919604  0.94042222  0.51106662    -0.59900
Mn784      Mn  0.87697953  0.88148347  0.52336485     1.18400
C785        C  0.88264686  0.96339838  0.52171375     0.98400
C786        C  0.79539917  0.87550456  0.51725319     0.99100
N787        N  0.92984352  0.86413100  0.60223186    -0.06100
N788        N  0.95517162  0.86369205  0.60350085    -0.62400
N789        N  0.87548751  0.83360844  0.61976839    -0.04900
N790        N  0.86647295  0.81412497  0.63424650    -0.63100
N791        N  0.88879101  0.82353713  0.60035117    -0.05600
N792        N  0.88920292  0.79813393  0.60103310    -0.62600
N793        N  0.91910063  0.87700332  0.62153898    -0.04500
N794        N  0.93810662  0.88572983  0.63659070    -0.63300
Mn795      Mn  0.90973685  0.84521620  0.57193677     1.10700
C796        C  0.96047260  0.87702362  0.62476392     0.99600
C797        C  0.87537085  0.79214096  0.62201480     0.99700
N798        N  0.81895398  0.89374378  0.60030096    -0.05600
N799        N  0.79356500  0.89433395  0.60102913    -0.61000
N800        N  0.87230252  0.92378371  0.62160854    -0.04900
N801        N  0.88071595  0.94268949  0.63695886    -0.57700
N802        N  0.85960754  0.93462160  0.60222918    -0.06200
N803        N  0.85899823  0.95994226  0.60374616    -0.60500
N804        N  0.82896124  0.88039531  0.61972573    -0.05200
N805        N  0.80945706  0.87152384  0.63424555    -0.57700
Mn806      Mn  0.84070155  0.91454383  0.57182746     1.20200
Mn807      Mn  0.87395386  0.87866693  0.62275848     1.10100
Cl808      Cl  0.87527796  0.87994235  0.57308472    -0.85700
C809        C  0.78753375  0.88056163  0.62203631     0.96600
C810        C  0.87203411  0.96510911  0.62523626     0.96400
N811        N  0.12704776  0.08845179  0.49248737    -0.05800
N812        N  0.11480119  0.07278430  0.50832543    -0.58000
N813        N  0.18171278  0.11716941  0.47324204    -0.05500
N814        N  0.20686842  0.12006243  0.47580061    -0.60100
N815        N  0.16912759  0.13015319  0.49109478    -0.05100
N816        N  0.18527096  0.14235386  0.50622088    -0.57900
N817        N  0.13945868  0.07532442  0.47460418    -0.04800
N818        N  0.13610029  0.05028389  0.47781709    -0.60400
C819        C  0.12037368  0.04920339  0.49865466     0.96300
C820        C  0.20860006  0.13616670  0.49616245     0.96100
N821        N  0.17059455  0.12780649  0.39494768    -0.06000
N822        N  0.18944924  0.13704027  0.37983153    -0.58500
N823        N  0.14066893  0.07393830  0.41537230    -0.04100
N824        N  0.14174044  0.04858455  0.41407093    -0.59800
N825        N  0.12752097  0.08431512  0.39601187    -0.06100
N826        N  0.11934620  0.06508363  0.38093830    -0.58800
N827        N  0.18140907  0.11476277  0.41414644    -0.03800
N828        N  0.20674754  0.11466598  0.41265644    -0.59900
Mn829      Mn  0.16101198  0.09505982  0.44436320     1.18400
C830        C  0.21185251  0.12842870  0.39140169     0.98400
C831        C  0.12853964  0.04292916  0.39276414     0.99100
N832        N  0.12747609  0.17228847  0.49133514    -0.06100
N833        N  0.13971086  0.18821829  0.50665923    -0.62400
N834        N  0.07220674  0.14343254  0.47513587    -0.04900
N835        N  0.04714552  0.14087556  0.47889001    -0.63100
N836        N  0.08531842  0.13078911  0.49286425    -0.05600
N837        N  0.06961557  0.11916846  0.50913723    -0.62600
N838        N  0.11449583  0.18512188  0.47364993    -0.04500
N839        N  0.11743199  0.21024140  0.47654035    -0.63300
Mn840      Mn  0.12725470  0.13040194  0.49276868     1.10700
C841        C  0.13357494  0.21169068  0.49690140     0.99600
C842        C  0.04602012  0.12536478  0.49988565     0.99700
N843        N  0.08059280  0.13155466  0.39634002    -0.05600
N844        N  0.06124827  0.12347947  0.38136935    -0.61000
N845        N  0.11156884  0.18513771  0.41455288    -0.04900
N846        N  0.11134745  0.21047352  0.41303738    -0.57700
N847        N  0.12425803  0.17434445  0.39511450    -0.06200
N848        N  0.13308063  0.19321622  0.37976684    -0.60500
N849        N  0.07039677  0.14471497  0.41579779    -0.05200
N850        N  0.04503085  0.14588163  0.41463913    -0.57700
Mn851      Mn  0.12566323  0.12943065  0.39356544     1.20200
Mn852      Mn  0.09194130  0.16479215  0.44479522     1.10100
Cl853      Cl  0.12637524  0.12984340  0.44317611    -0.85700
C854        C  0.03919797  0.13272408  0.39332904     0.96600
C855        C  0.12463932  0.21559891  0.39150297     0.96400
N856        N  0.62371682  0.08393188  0.26965062    -0.05800
N857        N  0.63695488  0.06778183  0.25492465    -0.58000
N858        N  0.56860701  0.11359304  0.28823441    -0.05500
N859        N  0.54340465  0.11687318  0.28613503    -0.60100
N860        N  0.58080024  0.12620030  0.26995676    -0.05100
N861        N  0.56423736  0.13852284  0.25489120    -0.57900
N862        N  0.61146433  0.07136503  0.28791634    -0.04800
N863        N  0.61587632  0.04629462  0.28610904    -0.60400
C864        C  0.63210951  0.04455227  0.26573602     0.96300
C865        C  0.54113641  0.13275711  0.26553393     0.96100
N866        N  0.57943526  0.12451495  0.36656666    -0.06000
N867        N  0.56042798  0.13225081  0.38249197    -0.58500
N868        N  0.61014124  0.07087323  0.34676655    -0.04100
N869        N  0.60910198  0.04560025  0.34860274    -0.59800
N870        N  0.62292797  0.08121251  0.36610750    -0.06100
N871        N  0.63084105  0.06208239  0.38179570    -0.58800
N872        N  0.56893167  0.11189285  0.34719537    -0.03800
N873        N  0.54368686  0.11077642  0.34924857    -0.59900
Mn874      Mn  0.58960330  0.09177152  0.31745052     1.18400
C875        C  0.53831179  0.12338108  0.37107190     0.98400
C876        C  0.62193979  0.04004684  0.37024894     0.99100
N877        N  0.62215028  0.16800506  0.26946030    -0.06100
N878        N  0.60925501  0.18441448  0.25465845    -0.62400
N879        N  0.67758325  0.13799142  0.28652320    -0.04900
N880        N  0.70268281  0.13440518  0.28368775    -0.63100
N881        N  0.66486147  0.12552702  0.26872955    -0.05600
N882        N  0.68095551  0.11298843  0.25331155    -0.62600
N883        N  0.63494605  0.18038974  0.28726952    -0.04500
N884        N  0.63119760  0.20552068  0.28509751    -0.63300
Mn885      Mn  0.62284459  0.12594671  0.26841739     1.10700
C886        C  0.61484252  0.20759736  0.26500747     0.99600
C887        C  0.70433257  0.11846464  0.26320707     0.99700
N888        N  0.66928018  0.12740105  0.36528217    -0.05600
N889        N  0.68866311  0.11962426  0.38066328    -0.61000
N890        N  0.63795842  0.18134457  0.34611471    -0.04900
N891        N  0.63892133  0.20666412  0.34773213    -0.57700
N892        N  0.62561433  0.17095502  0.36591117    -0.06200
N893        N  0.61794994  0.19006228  0.38167887    -0.60500
N894        N  0.67934241  0.13993866  0.34543263    -0.05200
N895        N  0.70467330  0.14091410  0.34663033    -0.57700
Mn896      Mn  0.62433076  0.12602942  0.36796869     1.20200
Mn897      Mn  0.65763178  0.16007516  0.31623164     1.10100
Cl898      Cl  0.62357686  0.12597855  0.31820316    -0.85700
C899        C  0.71059662  0.12830334  0.36842261     0.96600
C900        C  0.62649568  0.21220315  0.36974176     0.96400
N901        N  0.11986969  0.86828066  0.08850625    -0.05800
N902        N  0.12826423  0.88395207  0.06966692    -0.58000
N903        N  0.06657262  0.84732318  0.11891704    -0.05500
N904        N  0.04122987  0.84846488  0.11866170    -0.60100
N905        N  0.07667981  0.86642412  0.13224220    -0.05100
N906        N  0.05727895  0.88112414  0.14144632    -0.57900
N907        N  0.10713667  0.84922118  0.07768255    -0.04800
N908        N  0.10643684  0.85132069  0.05241347    -0.60400
C909        C  0.11946833  0.87279837  0.04732524     0.96300
C910        C  0.03535897  0.86936568  0.13258059     0.96100
N911        N  0.08117349  0.76968648  0.13002571    -0.06000
N912        N  0.06557683  0.75219203  0.13977402    -0.58500
N913        N  0.11035234  0.79004852  0.07593515    -0.04100
N914        N  0.11259318  0.78703933  0.05068346    -0.59800
N915        N  0.12355147  0.77208914  0.08823251    -0.06100
N916        N  0.13526528  0.75647353  0.07183029    -0.58800
N917        N  0.06796796  0.78786432  0.11805901    -0.03800
N918        N  0.04296995  0.78321209  0.11921494    -0.59900
Mn919      Mn  0.08781252  0.81869459  0.09752074     1.18400
C920        C  0.04189566  0.76114067  0.13317552     0.98400
C921        C  0.12859853  0.76630996  0.04860306     0.99100
N922        N  0.12329981  0.86582747  0.17834143    -0.06100
N923        N  0.11519887  0.88087032  0.19785184    -0.62400
N924        N  0.17725928  0.84744710  0.14695716    -0.04900
N925        N  0.20256811  0.84884573  0.14752514    -0.63100
N926        N  0.16656636  0.86720447  0.13458965    -0.05600
N927        N  0.18550605  0.88270740  0.12642370    -0.62600
N928        N  0.13628258  0.84604118  0.18824835    -0.04500
N929        N  0.13733351  0.84701387  0.21361982    -0.63300
Mn930      Mn  0.12155969  0.86899982  0.13343406     1.10700
C931        C  0.12424194  0.86856245  0.21970845     0.99600
C932        C  0.20782080  0.87066412  0.13483257     0.99700
N933        N  0.16519688  0.77123059  0.12988907    -0.05600
N934        N  0.18160421  0.75613096  0.11737166    -0.61000
N935        N  0.13492128  0.78695650  0.18535715    -0.04900
N936        N  0.13084742  0.78361327  0.21032750    -0.57700
N937        N  0.12267865  0.76954113  0.17193497    -0.06200
N938        N  0.10981670  0.75395025  0.18730872    -0.60500
N939        N  0.17754728  0.78861827  0.14321891    -0.05200
N940        N  0.20274636  0.78578291  0.14023388    -0.57700
Mn941      Mn  0.12325036  0.76987388  0.13006447     1.20200
Mn942      Mn  0.15668685  0.81718700  0.16617884     1.10100
Cl943      Cl  0.12227478  0.81940014  0.13182540    -0.85700
C944        C  0.20481851  0.76575303  0.12371431     0.96600
C945        C  0.11482970  0.76325488  0.21102159     0.96400
N946        N  0.07643182  0.62698240  0.36405586    -0.05800
N947        N  0.05718837  0.63470106  0.37969312    -0.58000
N948        N  0.10730255  0.57299978  0.34531484    -0.05500
N949        N  0.10615835  0.54774092  0.34735676    -0.60100
N950        N  0.11972420  0.58349635  0.36482229    -0.05100
N951        N  0.12724910  0.56447671  0.38084090    -0.57900
N952        N  0.06625633  0.61428609  0.34456540    -0.04800
N953        N  0.04098306  0.61315056  0.34623697    -0.60400
C954        C  0.03526123  0.62581793  0.36794337     0.96300
C955        C  0.11851365  0.54234544  0.36932486     0.96100
N956        N  0.12200993  0.58488779  0.26814054    -0.06000
N957        N  0.13406334  0.56828510  0.25291403    -0.58500
N958        N  0.06721807  0.61553376  0.28571572    -0.04100
N959        N  0.04213290  0.61948085  0.28349047    -0.59800
N960        N  0.07985213  0.62775858  0.26747333    -0.06100
N961        N  0.06369995  0.64049754  0.25231145    -0.58800
N962        N  0.10927319  0.57271794  0.28634041    -0.03800
N963        N  0.11217857  0.54749520  0.28402639    -0.59900
Mn964      Mn  0.08737193  0.59372674  0.31542822     1.18400
C965        C  0.12801498  0.54518777  0.26340109     0.98400
C966        C  0.04040606  0.63539690  0.26288346     0.99100
N967        N  0.16612496  0.62982408  0.36457567    -0.06100
N968        N  0.18520063  0.62250962  0.38053193    -0.62400
N969        N  0.13528409  0.68346476  0.34396212    -0.04900
N970        N  0.13647851  0.70878136  0.34535491    -0.63100
N971        N  0.12264790  0.67336223  0.36372686    -0.05600
N972        N  0.11500663  0.69269107  0.37923775    -0.62600
N973        N  0.17652724  0.64214675  0.34478575    -0.04500
N974        N  0.20178542  0.64342234  0.34653562    -0.63300
Mn975      Mn  0.12121383  0.62841333  0.36629566     1.10700
C976        C  0.20729622  0.63123696  0.36864110     0.99600
C977        C  0.12386919  0.71463947  0.36716924     0.99700
N978        N  0.12152020  0.66898870  0.26710595    -0.05600
N979        N  0.10876970  0.68517619  0.25195312    -0.61000
N980        N  0.17610287  0.63892252  0.28625554    -0.04900
N981        N  0.20120740  0.63475420  0.28480293    -0.57700
N982        N  0.16397500  0.62606811  0.26831485    -0.06200
N983        N  0.18057388  0.61270752  0.25413150    -0.60500
N984        N  0.13379881  0.68161390  0.28509722    -0.05200
N985        N  0.12988585  0.70670016  0.28269605    -0.57700
Mn986      Mn  0.12190949  0.62692842  0.26667772     1.20200
Mn987      Mn  0.15555176  0.66171234  0.31487963     1.10100
Cl988      Cl  0.12149333  0.62768378  0.31649825    -0.85700
C989        C  0.11394623  0.70846379  0.26226005     0.96600
C990        C  0.20356893  0.61808341  0.26501753     0.96400
N991        N  0.76727980  0.12773506  0.08777665    -0.05800
N992        N  0.75155261  0.13942487  0.07146278    -0.58000
N993        N  0.78386608  0.07237330  0.11759659    -0.05500
N994        N  0.78009921  0.04727385  0.11961044    -0.60100
N995        N  0.76563249  0.08535656  0.12971526    -0.05100
N996        N  0.74895333  0.06948963  0.14041908    -0.57900
N997        N  0.78534210  0.11476845  0.07537689    -0.04800
N998        N  0.78227935  0.11714521  0.05013815    -0.60400
C999        C  0.76140502  0.13297654  0.04818206     0.96300
C1000       C  0.75849940  0.04591656  0.13422362     0.96100
N1001       N  0.86207214  0.08141227  0.13149314    -0.06000
N1002       N  0.87672916  0.06208311  0.14090963    -0.58500
N1003       N  0.84459248  0.11190233  0.07695976    -0.04100
N1004       N  0.84677424  0.11107348  0.05171172    -0.59800
N1005       N  0.86366083  0.12459876  0.08780385    -0.06100
N1006       N  0.87942888  0.13285512  0.06899540    -0.58800
N1007       N  0.84312815  0.07121711  0.11803007    -0.03800
N1008       N  0.84434703  0.04586240  0.11786825    -0.59900
Mn1009     Mn  0.81427959  0.09239434  0.09680659     1.18400
C1010       C  0.86513348  0.04008977  0.13200386     0.98400
C1011       C  0.86831638  0.12399422  0.04666975     0.99100
N1012       N  0.76487066  0.12700575  0.17154783    -0.06100
N1013       N  0.74917960  0.11441518  0.18706811    -0.62400
N1014       N  0.78346535  0.18195297  0.14257240    -0.04900
N1015       N  0.78018409  0.20714154  0.13976683    -0.63100
N1016       N  0.76608607  0.16941846  0.12939662    -0.05600
N1017       N  0.75057001  0.18566881  0.11717144    -0.62600
N1018       N  0.78226782  0.13939709  0.18484910    -0.04500
N1019       N  0.77884506  0.13567757  0.20986284    -0.63300
Mn1020     Mn  0.76519456  0.12743379  0.12963024     1.10700
C1021       C  0.75842945  0.11974499  0.21074532     0.99600
C1022       C  0.75989231  0.20901080  0.12353023     0.99700
N1023       N  0.86232691  0.17125297  0.13387025    -0.05600
N1024       N  0.87781217  0.19023684  0.12578745    -0.61000
N1025       N  0.84139465  0.14090491  0.18758029    -0.04900
N1026       N  0.84232539  0.14177724  0.21297490    -0.57700
N1027       N  0.86119112  0.12795391  0.17764450    -0.06200
N1028       N  0.87618297  0.11971249  0.19714392    -0.60500
N1029       N  0.84248290  0.18188269  0.14615392    -0.05200
N1030       N  0.84381099  0.20719764  0.14674575    -0.57700
Mn1031     Mn  0.86436413  0.12627793  0.13272614     1.20200
Mn1032     Mn  0.81234888  0.16123162  0.16549301     1.10100
Cl1033     Cl  0.81475322  0.12681900  0.13116629    -0.85700
C1034       C  0.86566766  0.21250741  0.13415886     0.96600
C1035       C  0.86385439  0.12862212  0.21905242     0.96400
N1036       N  0.85442225  0.58345434  0.63457223    -0.05800
N1037       N  0.86966294  0.56369763  0.64192750    -0.58000
N1038       N  0.83686209  0.61409016  0.58057128    -0.05500
N1039       N  0.83853869  0.61249233  0.55529905    -0.60100
N1040       N  0.85673558  0.62607223  0.59072989    -0.05100
N1041       N  0.87266279  0.63284180  0.57143636    -0.57900
N1042       N  0.83430830  0.57393661  0.62239983    -0.04800
N1043       N  0.83520400  0.54858815  0.62124881    -0.60400
C1044       C  0.85705419  0.54214236  0.63339995     0.96300
C1045       C  0.86068222  0.62407933  0.54950004     0.96100
N1046       N  0.76094930  0.63398983  0.59226600    -0.06000
N1047       N  0.74600775  0.64604957  0.57540840    -0.58500
N1048       N  0.77507027  0.57838963  0.62326512    -0.04100
N1049       N  0.77053605  0.55354520  0.62622124    -0.59800
N1050       N  0.75734967  0.59237758  0.63506075    -0.06100
N1051       N  0.74028751  0.57743501  0.64651639    -0.58800
N1052       N  0.77839925  0.61980716  0.58033698    -0.03800
N1053       N  0.77584394  0.62176667  0.55506808    -0.59900
Mn1054     Mn  0.80617067  0.59637154  0.60162449     1.18400
C1055       C  0.75590332  0.63854071  0.55238214     0.98400
C1056       C  0.74907268  0.55338147  0.64107309     0.99100
N1057       N  0.85818673  0.67328021  0.63655432    -0.06100
N1058       N  0.87352038  0.69176933  0.62703792    -0.62400
N1059       N  0.83686003  0.64359018  0.69097421    -0.04900
N1060       N  0.83789981  0.64391240  0.71634569    -0.63100
N1061       N  0.85583314  0.62975929  0.68064449    -0.05600
N1062       N  0.87036089  0.62021417  0.69989608    -0.62600
N1063       N  0.83947824  0.68464684  0.64987076    -0.04500
N1064       N  0.84142134  0.70992857  0.64984283    -0.63300
Mn1065     Mn  0.85827361  0.62813627  0.63562828     1.10700
C1066       C  0.86248980  0.71452095  0.63572937     0.99600
C1067       C  0.85863192  0.62941546  0.72199712     0.99700
N1068       N  0.75931124  0.63422494  0.67640464    -0.05600
N1069       N  0.74388012  0.62156084  0.69216610    -0.61000
N1070       N  0.78135120  0.68749948  0.64674472    -0.04900
N1071       N  0.78179455  0.71246070  0.64163536    -0.57700
N1072       N  0.76319155  0.67617713  0.63350321    -0.06200
N1073       N  0.75082118  0.69313558  0.61892210    -0.60500
N1074       N  0.77778630  0.64537725  0.68938193    -0.05200
N1075       N  0.77536735  0.64076021  0.71436563    -0.57700
Mn1076     Mn  0.75910243  0.63441489  0.63434797     1.20200
Mn1077     Mn  0.80881089  0.66544915  0.66961029     1.10100
Cl1078     Cl  0.80846229  0.63101481  0.63533579    -0.85700
C1079       C  0.75436783  0.62566352  0.71558928     0.96600
C1080       C  0.76298457  0.71546354  0.62394357     0.96400
N1081       N  0.12254057  0.08656922  0.77653223    -0.05800
N1082       N  0.13442999  0.07047490  0.76069815    -0.58000
N1083       N  0.06768773  0.11653898  0.79509979    -0.05500
N1084       N  0.04251712  0.11969498  0.79241328    -0.60100
N1085       N  0.08018175  0.12908044  0.77699219    -0.05100
N1086       N  0.06392624  0.14123081  0.76151355    -0.57900
N1087       N  0.11014380  0.07389153  0.79461616    -0.04800
N1088       N  0.11311981  0.04873304  0.79153316    -0.60400
C1089       C  0.12866885  0.04708175  0.77057844     0.96300
C1090       C  0.04063920  0.13549590  0.77167528     0.96100
N1091       N  0.07807246  0.12733429  0.87333387    -0.06000
N1092       N  0.05891584  0.13579843  0.88874786    -0.58500
N1093       N  0.10881097  0.07342224  0.85368148    -0.04100
N1094       N  0.10820037  0.04811592  0.85513848    -0.59800
N1095       N  0.12174758  0.08368184  0.87295849    -0.06100
N1096       N  0.13032095  0.06441873  0.88816884    -0.58800
N1097       N  0.06767309  0.11452431  0.85405340    -0.03800
N1098       N  0.04238240  0.11388537  0.85570336    -0.59900
Mn1099     Mn  0.08841547  0.09441365  0.82434610     1.18400
C1100       C  0.03682103  0.12702636  0.87715712     0.98400
C1101       C  0.12149276  0.04241133  0.87646115     0.99100
N1102       N  0.12167078  0.17036902  0.77600552    -0.06100
N1103       N  0.10953504  0.18645879  0.76030702    -0.62400
N1104       N  0.17695794  0.14050398  0.79304660    -0.04900
N1105       N  0.20204649  0.13780617  0.78913775    -0.63100
N1106       N  0.16399900  0.12797090  0.77547346    -0.05600
N1107       N  0.17983171  0.11628191  0.75918607    -0.62600
N1108       N  0.13449069  0.18305173  0.79356180    -0.04500
N1109       N  0.13153941  0.20819576  0.79024924    -0.63300
Mn1110     Mn  0.12207766  0.12847685  0.77543525     1.10700
C1111       C  0.11556078  0.20986019  0.76975674     0.99600
C1112       C  0.20337979  0.12228821  0.76825712     0.99700
N1113       N  0.16786381  0.12995165  0.87218427    -0.05600
N1114       N  0.18708714  0.12190908  0.88760319    -0.61000
N1115       N  0.13694755  0.18367463  0.85267693    -0.04900
N1116       N  0.13752921  0.20899219  0.85398314    -0.57700
N1117       N  0.12429775  0.17336932  0.87233820    -0.06200
N1118       N  0.11593196  0.19254474  0.88764145    -0.60500
N1119       N  0.17811089  0.14250185  0.85242143    -0.05200
N1120       N  0.20341817  0.14332721  0.85378148    -0.57700
Mn1121     Mn  0.12301071  0.12858542  0.87476874     1.20200
Mn1122     Mn  0.15685740  0.16260824  0.82289776     1.10100
Cl1123     Cl  0.12265378  0.12852159  0.82508019    -0.85700
C1124       C  0.20908961  0.13057695  0.87554256     0.96600
C1125       C  0.12453652  0.21458222  0.87561431     0.96400
N1126       N  0.62184464  0.36601925  0.08962035    -0.05800
N1127       N  0.63043761  0.38106871  0.07035820    -0.58000
N1128       N  0.56849645  0.34669674  0.12117593    -0.05500
N1129       N  0.54316667  0.34843373  0.12111384    -0.60100
N1130       N  0.57915886  0.36579380  0.13403568    -0.05100
N1131       N  0.56017688  0.38113686  0.14308939    -0.57900
N1132       N  0.60860469  0.34703013  0.07931444    -0.04800
N1133       N  0.60775849  0.34855964  0.05401134    -0.60400
C1134       C  0.62122532  0.36961444  0.04832940     0.96300
C1135       C  0.53788324  0.36973494  0.13466615     0.96100
N1136       N  0.58185294  0.26899517  0.13333812    -0.06000
N1137       N  0.56584807  0.25247670  0.14412719    -0.58500
N1138       N  0.61056792  0.28794778  0.07845663    -0.04100
N1139       N  0.61259456  0.28491627  0.05319864    -0.59800
N1140       N  0.62358092  0.26979416  0.09066939    -0.06100
N1141       N  0.63493209  0.25398576  0.07418884    -0.58800
N1142       N  0.56897409  0.28745449  0.12144626    -0.03800
N1143       N  0.54386252  0.28402537  0.12369814    -0.59900
Mn1144     Mn  0.58898297  0.31733194  0.09998716     1.18400
C1145       C  0.54233102  0.26240249  0.13823121     0.98400
C1146       C  0.62820904  0.26392235  0.05101191     0.99100
N1147       N  0.62656386  0.36448574  0.17945934    -0.06100
N1148       N  0.61894074  0.37970444  0.19901886    -0.62400
N1149       N  0.67966750  0.34492787  0.14734093    -0.04900
N1150       N  0.70499427  0.34618053  0.14769396    -0.63100
N1151       N  0.66902069  0.36481380  0.13512307    -0.05600
N1152       N  0.68797244  0.38024008  0.12687173    -0.62600
N1153       N  0.63945905  0.34458610  0.18927758    -0.04500
N1154       N  0.64094465  0.34566963  0.21459954    -0.63300
Mn1155     Mn  0.62411766  0.36733923  0.13456361     1.10700
C1156       C  0.62823907  0.36739182  0.22076969     0.99600
C1157       C  0.71026702  0.36801889  0.13502268     0.99700
N1158       N  0.66609281  0.26845006  0.13157547    -0.05600
N1159       N  0.68209329  0.25293322  0.11900053    -0.61000
N1160       N  0.63695203  0.28539528  0.18735738    -0.04900
N1161       N  0.63317418  0.28230107  0.21242615    -0.57700
N1162       N  0.62420404  0.26806877  0.17429775    -0.06200
N1163       N  0.61130181  0.25282308  0.18997739    -0.60500
N1164       N  0.67893442  0.28589306  0.14436981    -0.05200
N1165       N  0.70403792  0.28271480  0.14092609    -0.57700
Mn1166     Mn  0.62400977  0.26801842  0.13249397     1.20200
Mn1167     Mn  0.65895613  0.31511956  0.16730943     1.10100
Cl1168     Cl  0.62400398  0.31766171  0.13363806    -0.85700
C1169       C  0.70556557  0.26237101  0.12475666     0.96600
C1170       C  0.61681465  0.26219823  0.21353167     0.96400
N1171       N  0.08405150  0.26581332  0.63468694    -0.05800
N1172       N  0.06866645  0.25046533  0.64785139    -0.58000
N1173       N  0.11227671  0.28482924  0.57930364    -0.05500
N1174       N  0.11549049  0.28285299  0.55408884    -0.60100
N1175       N  0.12576640  0.26704145  0.59150478    -0.05100
N1176       N  0.13863409  0.25243725  0.57493798    -0.57900
N1177       N  0.07064366  0.28373914  0.62257525    -0.04800
N1178       N  0.04571855  0.28105936  0.62702300    -0.60400
C1179       C  0.04496553  0.26050315  0.64310912     0.96300
C1180       C  0.13225666  0.26285062  0.55180958     0.96100
N1181       N  0.12147744  0.36292252  0.58923388    -0.06000
N1182       N  0.12943260  0.37810702  0.56982762    -0.58500
N1183       N  0.06831453  0.34272394  0.62054893    -0.04100
N1184       N  0.04298126  0.34396780  0.61972722    -0.59800
N1185       N  0.07828855  0.36252676  0.63286177    -0.06100
N1186       N  0.05879494  0.37788934  0.64073335    -0.58800
N1187       N  0.10889585  0.34335379  0.57918021    -0.03800
N1188       N  0.10801579  0.34453033  0.55387099    -0.59900
Mn1189     Mn  0.08979862  0.31360214  0.60028278     1.18400
C1190       C  0.12069548  0.36600817  0.54797301     0.98400
C1191       C  0.03694581  0.36569891  0.63224496     0.99100
N1192       N  0.16785373  0.26779385  0.63256300    -0.06100
N1193       N  0.18425582  0.25361239  0.61902569    -0.62400
N1194       N  0.13799586  0.28445583  0.68821223    -0.04900
N1195       N  0.13404317  0.28206132  0.71330228    -0.63100
N1196       N  0.12603841  0.26631943  0.67552475    -0.05600
N1197       N  0.11347514  0.25112222  0.69158940    -0.62600
N1198       N  0.18003553  0.28573474  0.64531644    -0.04500
N1199       N  0.20511354  0.28422217  0.64088764    -0.63300
Mn1200     Mn  0.12602132  0.26574692  0.63354542     1.10700
C1201       C  0.20725068  0.26439901  0.62415486     0.99600
C1202       C  0.11844450  0.26145027  0.71491320     0.99700
N1203       N  0.12482868  0.36286362  0.67884114    -0.05600
N1204       N  0.11577846  0.37784026  0.69795372    -0.61000
N1205       N  0.17907142  0.34438868  0.64806067    -0.04900
N1206       N  0.20431597  0.34618062  0.64900334    -0.57700
N1207       N  0.16822879  0.36385030  0.63537439    -0.06200
N1208       N  0.18704366  0.37959660  0.62738547    -0.60500
N1209       N  0.13821732  0.34359551  0.68924465    -0.05200
N1210       N  0.13868413  0.34489362  0.71460014    -0.57700
Mn1211     Mn  0.12318850  0.36513039  0.63402992     1.20200
Mn1212     Mn  0.15903570  0.31444435  0.66797887     1.10100
Cl1213     Cl  0.12449369  0.31544913  0.63398969    -0.85700
C1214       C  0.12477272  0.36608433  0.72009162     0.96600
C1215       C  0.20940208  0.36794995  0.63622666     0.96400
N1216       N  0.12655617  0.38669374  0.08830277    -0.05800
N1217       N  0.11883397  0.37101659  0.06935182    -0.58000
N1218       N  0.17936399  0.40788109  0.11887711    -0.05500
N1219       N  0.20474817  0.40724491  0.11906735    -0.60100
N1220       N  0.16932806  0.38864416  0.13232945    -0.05100
N1221       N  0.18879447  0.37442994  0.14210734    -0.57900
N1222       N  0.13902761  0.40614489  0.07756037    -0.04800
N1223       N  0.14016073  0.40430418  0.05227841    -0.60400
C1224       C  0.12770694  0.38257770  0.04703865     0.96300
C1225       C  0.21072246  0.38654177  0.13342793     0.96100
N1226       N  0.16336640  0.48511330  0.13078092    -0.06000
N1227       N  0.17859060  0.50225962  0.14136993    -0.58500
N1228       N  0.13491210  0.46550925  0.07644776    -0.04100
N1229       N  0.13276380  0.46910537  0.05124165    -0.59800
N1230       N  0.12142718  0.48304286  0.08903047    -0.06100
N1231       N  0.10960477  0.49888671  0.07290707    -0.58800
N1232       N  0.17696756  0.46739769  0.11859607    -0.03800
N1233       N  0.20191661  0.47205003  0.12045404    -0.59900
Mn1234     Mn  0.15778025  0.43666375  0.09766386     1.18400
C1235       C  0.20246307  0.49361351  0.13505054     0.98400
C1236       C  0.11651229  0.48970219  0.04953384     0.99100
N1237       N  0.12231447  0.38830764  0.17841484    -0.06100
N1238       N  0.13091260  0.37363421  0.19807762    -0.62400
N1239       N  0.06833293  0.40641955  0.14696980    -0.04900
N1240       N  0.04307607  0.40470376  0.14792480    -0.63100
N1241       N  0.07926678  0.38675721  0.13472027    -0.05600
N1242       N  0.06046565  0.37096988  0.12704337    -0.62600
N1243       N  0.10879163  0.40775893  0.18821094    -0.04500
N1244       N  0.10782102  0.40691183  0.21358989    -0.63300
Mn1245     Mn  0.12442082  0.38548694  0.13342962     1.10700
C1246       C  0.12150227  0.38580023  0.21986486     0.99600
C1247       C  0.03803581  0.38279178  0.13562087     0.99700
N1248       N  0.07938613  0.48322343  0.13070810    -0.05600
N1249       N  0.06293668  0.49896358  0.11902900    -0.61000
N1250       N  0.10930221  0.46664864  0.18592302    -0.04900
N1251       N  0.11257845  0.46980798  0.21097321    -0.57700
N1252       N  0.12158322  0.48439978  0.17275668    -0.06200
N1253       N  0.13368619  0.50010049  0.18841270    -0.60500
N1254       N  0.06706979  0.46544540  0.14379636    -0.05200
N1255       N  0.04183933  0.46863768  0.14149863    -0.57700
Mn1256     Mn  0.12138026  0.48464833  0.13082706     1.20200
Mn1257     Mn  0.08821715  0.43658388  0.16633500     1.10100
Cl1258     Cl  0.12298539  0.43510153  0.13200092    -0.85700
C1259       C  0.03970368  0.48933877  0.12564291     0.96600
C1260       C  0.12815404  0.49046860  0.21203221     0.96400
N1261       N  0.41623842  0.38074261  0.25011998    -0.05800
N1262       N  0.43212755  0.36747500  0.26507712    -0.58000
N1263       N  0.38650495  0.43572202  0.23116596    -0.05500
N1264       N  0.38201884  0.46082658  0.23268549    -0.60100
N1265       N  0.37388747  0.42335329  0.24931444    -0.05100
N1266       N  0.36035109  0.43958858  0.26363885    -0.57900
N1267       N  0.42902296  0.39286953  0.23191739    -0.04800
N1268       N  0.45406209  0.38829646  0.23401984    -0.60400
C1269       C  0.45547297  0.37216932  0.25454185     0.96300
C1270       C  0.36539415  0.46270349  0.25276902     0.96100
N1271       N  0.37581073  0.42481414  0.15296722    -0.06000
N1272       N  0.36756559  0.44378598  0.13723898    -0.58500
N1273       N  0.42970578  0.39411491  0.17275719    -0.04100
N1274       N  0.45499208  0.39504346  0.17087602    -0.59800
N1275       N  0.41929505  0.38126544  0.15348427    -0.06100
N1276       N  0.43840104  0.37316036  0.13784073    -0.58800
N1277       N  0.38863455  0.43539834  0.17215832    -0.03800
N1278       N  0.38942488  0.46068181  0.17013752    -0.59900
Mn1279     Mn  0.40871775  0.41473935  0.20208648     1.18400
C1280       C  0.37638525  0.46599672  0.14853674     0.98400
C1281       C  0.46050478  0.38205710  0.14928466     0.99100
N1282       N  0.33245037  0.38238102  0.25026677    -0.06100
N1283       N  0.31646247  0.39627304  0.26458582    -0.62400
N1284       N  0.36234916  0.32675903  0.23338350    -0.04900
N1285       N  0.36724660  0.30176999  0.23544054    -0.63100
N1286       N  0.37489372  0.33962748  0.25100733    -0.05600
N1287       N  0.38878439  0.32381338  0.26551864    -0.62600
N1288       N  0.31977685  0.36960572  0.23267079    -0.04500
N1289       N  0.29474676  0.37434119  0.23456792    -0.63300
Mn1290     Mn  0.37435118  0.38153227  0.25114242     1.10700
C1291       C  0.29318519  0.39128312  0.25426410     0.99600
C1292       C  0.38400336  0.30044427  0.25528946     0.99700
N1293       N  0.37287637  0.33503615  0.15462792    -0.05600
N1294       N  0.38063950  0.31567892  0.13922888    -0.61000
N1295       N  0.31900777  0.36640260  0.17375677    -0.04900
N1296       N  0.29371719  0.36533334  0.17206433    -0.57700
N1297       N  0.32943266  0.37860062  0.15387450    -0.06200
N1298       N  0.31036251  0.38602791  0.13796418    -0.60500
N1299       N  0.36025133  0.32498073  0.17443895    -0.05200
N1300       N  0.35921737  0.29964918  0.17317912    -0.57700
Mn1301     Mn  0.37435821  0.37990293  0.15173563     1.20200
Mn1302     Mn  0.34011352  0.34671491  0.20369605     1.10100
Cl1303     Cl  0.37440601  0.38070363  0.20142644    -0.85700
C1304       C  0.37187713  0.29376367  0.15139971     0.96600
C1305       C  0.28822978  0.37751724  0.14992501     0.96400
N1306       N  0.66654629  0.62458045  0.39817277    -0.05800
N1307       N  0.68561082  0.63334351  0.38301235    -0.58000
N1308       N  0.63678589  0.57045811  0.41738629    -0.05500
N1309       N  0.63805613  0.54515177  0.41569565    -0.60100
N1310       N  0.62377490  0.58104245  0.39804621    -0.05100
N1311       N  0.61588806  0.56203375  0.38257512    -0.57900
N1312       N  0.67712392  0.61156183  0.41753225    -0.04800
N1313       N  0.70246591  0.61110225  0.41614336    -0.60400
C1314       C  0.70787019  0.62457848  0.39479197     0.96300
C1315       C  0.62512083  0.53980278  0.39415822     0.96100
N1316       N  0.62168974  0.58324946  0.49437441    -0.06000
N1317       N  0.60887670  0.56722160  0.50935273    -0.58500
N1318       N  0.67637814  0.61294823  0.47673952    -0.04100
N1319       N  0.70141095  0.61664588  0.47938191    -0.59800
N1320       N  0.66331862  0.62540279  0.49464423    -0.06100
N1321       N  0.67899702  0.63801242  0.50991950    -0.58800
N1322       N  0.63454760  0.57058345  0.47648449    -0.03800
N1323       N  0.63095416  0.54548170  0.47884972    -0.59900
Mn1324     Mn  0.65644135  0.59116791  0.44707849     1.18400
C1325       C  0.61459286  0.54390816  0.49916487     0.98400
C1326       C  0.70252379  0.63259987  0.49990898     0.99100
N1327       N  0.57644940  0.62757844  0.39836744    -0.06100
N1328       N  0.55735160  0.61944463  0.38311470    -0.62400
N1329       N  0.60652430  0.68136444  0.41787678    -0.04900
N1330       N  0.60595823  0.70674352  0.41667757    -0.63100
N1331       N  0.61959919  0.67101355  0.39843616    -0.05600
N1332       N  0.62829719  0.69023734  0.38343960    -0.62600
N1333       N  0.56589496  0.64032116  0.41789346    -0.04500
N1334       N  0.54055379  0.64115345  0.41656513    -0.63300
Mn1335     Mn  0.62155352  0.62604434  0.39620802     1.10700
C1336       C  0.53510313  0.62822812  0.39504816     0.99600
C1337       C  0.61943430  0.71238688  0.39535589     0.99700
N1338       N  0.62108195  0.66707797  0.49484639    -0.05600
N1339       N  0.63372561  0.68288043  0.50997528    -0.61000
N1340       N  0.56663629  0.63753709  0.47681025    -0.04900
N1341       N  0.54165436  0.63321969  0.47899708    -0.57700
N1342       N  0.57956319  0.62470654  0.49453409    -0.06200
N1343       N  0.56382740  0.61120610  0.50921952    -0.60500
N1344       N  0.60835328  0.68004274  0.47706489    -0.05200
N1345       N  0.61188333  0.70510637  0.47963831    -0.57700
Mn1346     Mn  0.62141552  0.62512663  0.49549100     1.20200
Mn1347     Mn  0.58663346  0.66006435  0.44747034     1.10100
Cl1348     Cl  0.62152861  0.62560760  0.44584599    -0.85700
C1349       C  0.62800794  0.70636414  0.49999874     0.96600
C1350       C  0.54042372  0.61647159  0.49901324     0.96400
N1351       N  0.51803668  0.33246610  0.38816980    -0.05800
N1352       N  0.50311179  0.31555189  0.37681461    -0.58000
N1353       N  0.53529338  0.36449559  0.44162482    -0.05500
N1354       N  0.53196066  0.36830122  0.46665966    -0.60100
N1355       N  0.51702951  0.37627147  0.42841439    -0.05100
N1356       N  0.50093975  0.38858828  0.44394083    -0.57900
N1357       N  0.53631572  0.32065900  0.40126786    -0.04800
N1358       N  0.53441282  0.29537253  0.39928637    -0.60400
C1359       C  0.51389808  0.29266690  0.38365990     0.96300
C1360       C  0.51072271  0.38374161  0.46758097     0.96100
N1361       N  0.61385300  0.37520291  0.42996008    -0.06000
N1362       N  0.62967096  0.38328579  0.44862156    -0.58500
N1363       N  0.59504214  0.32084324  0.40132862    -0.04100
N1364       N  0.59625649  0.29545421  0.40144543    -0.59800
N1365       N  0.61354833  0.33112785  0.38708665    -0.06100
N1366       N  0.62786155  0.31184771  0.37706898    -0.58800
N1367       N  0.59458101  0.36284526  0.44108055    -0.03800
N1368       N  0.59659078  0.36213680  0.46633365    -0.59900
Mn1369     Mn  0.56532690  0.34211791  0.42162932     1.18400
C1370       C  0.61827032  0.37477579  0.47115217     0.98400
C1371       C  0.61660113  0.28973949  0.38647617     0.99100
N1372       N  0.51451768  0.41636094  0.38508140    -0.06100
N1373       N  0.49706232  0.43207962  0.39523940    -0.62400
N1374       N  0.53370405  0.38585989  0.33140057    -0.04900
N1375       N  0.53048264  0.38261314  0.30637195    -0.63100
N1376       N  0.51648189  0.37287536  0.34460572    -0.05600
N1377       N  0.50104587  0.36040165  0.32894251    -0.62600
N1378       N  0.53184903  0.42937062  0.37205751    -0.04500
N1379       N  0.52655344  0.45438796  0.37281254    -0.63300
Mn1380     Mn  0.51573368  0.37439678  0.38657347     1.10700
C1381       C  0.50507436  0.45564487  0.38770896     0.99600
C1382       C  0.51038365  0.36633803  0.30526781     0.99700
N1383       N  0.61244480  0.37720096  0.33998986    -0.05600
N1384       N  0.62815889  0.36961773  0.32073601    -0.61000
N1385       N  0.59156411  0.43098493  0.37007930    -0.04900
N1386       N  0.59237309  0.45633660  0.36897807    -0.57700
N1387       N  0.61153623  0.42094722  0.38261300    -0.06200
N1388       N  0.62648663  0.44034370  0.39035754    -0.60500
N1389       N  0.59243079  0.38945254  0.32971534    -0.05200
N1390       N  0.59383246  0.39042492  0.30436656    -0.57700
Mn1391     Mn  0.61491443  0.37609202  0.38487564     1.20200
Mn1392     Mn  0.56238476  0.40914850  0.35073076     1.10100
Cl1393     Cl  0.56528985  0.37552979  0.38598252    -0.85700
C1394       C  0.61592890  0.37814938  0.29866491     0.96600
C1395       C  0.61398297  0.46224676  0.38153214     0.96400
N1396       N  0.35936948  0.08279767  0.63297124    -0.05800
N1397       N  0.37466231  0.06328221  0.64094590    -0.58000
N1398       N  0.34119755  0.11337888  0.57899860    -0.05500
N1399       N  0.34286848  0.11239852  0.55372498    -0.60100
N1400       N  0.36057299  0.12596842  0.58938860    -0.05100
N1401       N  0.37612162  0.13387550  0.57024984    -0.57900
N1402       N  0.33976772  0.07283711  0.62032326    -0.04800
N1403       N  0.34107637  0.04750224  0.61939712    -0.60400
C1404       C  0.36263465  0.04143547  0.63218717     0.96300
C1405       C  0.36445232  0.12504108  0.54819683     0.96100
N1406       N  0.26460871  0.13036206  0.59006585    -0.06000
N1407       N  0.24993588  0.14286440  0.57330021    -0.58500
N1408       N  0.28069492  0.07517669  0.62107631    -0.04100
N1409       N  0.27758065  0.05020703  0.62494722    -0.59800
N1410       N  0.26260840  0.08858465  0.63294594    -0.06100
N1411       N  0.24671623  0.07317787  0.64537261    -0.58800
N1412       N  0.28260608  0.11693414  0.57809531    -0.03800
N1413       N  0.28069295  0.11983386  0.55283514    -0.59900
Mn1414     Mn  0.31102684  0.09437034  0.59951974     1.18400
C1415       C  0.26052213  0.13636785  0.55028655     0.98400
C1416       C  0.25658515  0.04945519  0.64045177     0.99100
N1417       N  0.36035662  0.17274989  0.63542878    -0.06100
N1418       N  0.37606129  0.19158839  0.62744238    -0.62400
N1419       N  0.33941076  0.14281728  0.68909853    -0.04900
N1420       N  0.34051710  0.14366154  0.71445564    -0.63100
N1421       N  0.35895791  0.12958350  0.67901235    -0.05600
N1422       N  0.37393419  0.12105906  0.69836145    -0.62600
N1423       N  0.34070120  0.18357093  0.64783936    -0.04500
N1424       N  0.34233000  0.20884010  0.64859296    -0.63300
Mn1425     Mn  0.36189601  0.12775179  0.63420986     1.10700
C1426       C  0.36419589  0.21393784  0.63599407     0.99600
C1427       C  0.36187402  0.13016712  0.72029595     0.99700
N1428       N  0.26227963  0.13048205  0.67409540    -0.05600
N1429       N  0.24632497  0.11854490  0.68990696    -0.61000
N1430       N  0.28204251  0.18454714  0.64441737    -0.04900
N1431       N  0.28016403  0.20968855  0.64045908    -0.57700
N1432       N  0.26436292  0.17234131  0.63134099    -0.06200
N1433       N  0.24999361  0.18877648  0.61804560    -0.60500
N1434       N  0.28014977  0.14247104  0.68712890    -0.05200
N1435       N  0.27681011  0.13916782  0.71220623    -0.57700
Mn1436     Mn  0.26254190  0.13051136  0.63207278     1.20200
Mn1437     Mn  0.31050158  0.16351789  0.66738368     1.10100
Cl1438     Cl  0.31221183  0.12899965  0.63336675    -0.85700
C1439       C  0.25590760  0.12391848  0.71346648     0.96600
C1440       C  0.26041182  0.21183728  0.62364265     0.96400
N1441       N  0.26365010  0.62963047  0.09133251    -0.05800
N1442       N  0.24783021  0.64114700  0.07497713    -0.58000
N1443       N  0.28116815  0.57474322  0.12168994    -0.05500
N1444       N  0.27726435  0.54965357  0.12334688    -0.60100
N1445       N  0.26285399  0.58767747  0.13374653    -0.05100
N1446       N  0.24597954  0.57172718  0.14405597    -0.57900
N1447       N  0.28165146  0.61655369  0.07896905    -0.04800
N1448       N  0.27852099  0.61870610  0.05374459    -0.60400
C1449       C  0.25763382  0.63446505  0.05172768     0.96300
C1450       C  0.25552049  0.54816566  0.13770850     0.96100
N1451       N  0.35972115  0.58460858  0.13375744    -0.06000
N1452       N  0.37510358  0.56555250  0.14257219    -0.58500
N1453       N  0.34066856  0.61438405  0.07929395    -0.04100
N1454       N  0.34202597  0.61367455  0.05396713    -0.59800
N1455       N  0.35979101  0.62748233  0.08953419    -0.06100
N1456       N  0.37476655  0.63608060  0.07022163    -0.58800
N1457       N  0.34049002  0.57404765  0.12101476    -0.03800
N1458       N  0.34217936  0.54870813  0.12080075    -0.59900
Mn1459     Mn  0.31105074  0.59474344  0.10014798     1.18400
C1460       C  0.36359013  0.54332409  0.13413915     0.98400
C1461       C  0.36311837  0.62707041  0.04821617     0.99100
N1462       N  0.26271413  0.62977670  0.17495019    -0.06100
N1463       N  0.24799976  0.61627621  0.19062175    -0.62400
N1464       N  0.28055665  0.68462998  0.14519069    -0.04900
N1465       N  0.27784371  0.70974988  0.14154922    -0.63100
N1466       N  0.26294844  0.67197245  0.13244784    -0.05600
N1467       N  0.24775893  0.68813917  0.11969663    -0.62600
N1468       N  0.28018533  0.64239286  0.18794658    -0.04500
N1469       N  0.27770923  0.63792322  0.21297582    -0.63300
Mn1470     Mn  0.26220205  0.62987560  0.13317063     1.10700
C1471       C  0.25783611  0.62128922  0.21409045     0.99600
C1472       C  0.25760134  0.71148130  0.12530856     0.99700
N1473       N  0.35919042  0.67450530  0.13517413    -0.05600
N1474       N  0.37459423  0.69340590  0.12674599    -0.61000
N1475       N  0.33922839  0.64479835  0.18939943    -0.04900
N1476       N  0.34043912  0.64618851  0.21471231    -0.57700
N1477       N  0.35897552  0.63181479  0.17941469    -0.06200
N1478       N  0.37424182  0.62402029  0.19887041    -0.60500
N1479       N  0.33949402  0.68522548  0.14762525    -0.05200
N1480       N  0.34085692  0.71056463  0.14795958    -0.57700
Mn1481     Mn  0.36147530  0.62955858  0.13446509     1.20200
Mn1482     Mn  0.30976767  0.66447979  0.16777560     1.10100
Cl1483     Cl  0.31182480  0.62963359  0.13392856    -0.85700
C1484       C  0.36257290  0.71576752  0.13502732     0.96600
C1485       C  0.36209501  0.63332298  0.22071812     0.96400
N1486       N  0.47945371  0.12869716  0.09142535    -0.05800
N1487       N  0.49553948  0.11696305  0.07545239    -0.58000
N1488       N  0.46221383  0.18387411  0.12078186    -0.05500
N1489       N  0.46632467  0.20892176  0.12267906    -0.60100
N1490       N  0.47996270  0.17065785  0.13331699    -0.05100
N1491       N  0.49658484  0.18624869  0.14418845    -0.57900
N1492       N  0.46174745  0.14174621  0.07863477    -0.04800
N1493       N  0.46541415  0.13936981  0.05347561    -0.60400
C1494       C  0.48628083  0.12348754  0.05198375     0.96300
C1495       C  0.48756287  0.20993954  0.13769301     0.96100
N1496       N  0.38377088  0.17486960  0.13345833    -0.06000
N1497       N  0.36942568  0.19410477  0.14350213    -0.58500
N1498       N  0.40239096  0.14471323  0.07864279    -0.04100
N1499       N  0.40095626  0.14545321  0.05329421    -0.59800
N1500       N  0.38305723  0.13193784  0.08920918    -0.06100
N1501       N  0.36789461  0.12360065  0.07010485    -0.58800
N1502       N  0.40291370  0.18521055  0.12014079    -0.03800
N1503       N  0.40211883  0.21058540  0.12067387    -0.59900
Mn1504     Mn  0.43224372  0.16409679  0.09931221     1.18400
C1505       C  0.38138139  0.21622729  0.13509959     0.98400
C1506       C  0.37960365  0.13241028  0.04784236     0.99100
N1507       N  0.47966635  0.12880549  0.17524271    -0.06100
N1508       N  0.49534089  0.14065307  0.19112057    -0.62400
N1509       N  0.46214542  0.07402424  0.14596994    -0.04900
N1510       N  0.46596452  0.04886805  0.14377702    -0.63100
N1511       N  0.47987240  0.08674932  0.13321885    -0.05600
N1512       N  0.49620328  0.07068073  0.12186323    -0.62600
N1513       N  0.46202575  0.11611825  0.18816854    -0.04500
N1514       N  0.46526182  0.11887348  0.21328889    -0.63300
Mn1515     Mn  0.48044888  0.12870744  0.13331227     1.10700
C1516       C  0.48582552  0.13458279  0.21465110     0.99600
C1517       C  0.48698868  0.04725104  0.12831322     0.99700
N1518       N  0.38334886  0.08491201  0.13551353    -0.05600
N1519       N  0.36795539  0.06600829  0.12736246    -0.61000
N1520       N  0.40313353  0.11458813  0.18929150    -0.04900
N1521       N  0.40208429  0.11368745  0.21463660    -0.57700
N1522       N  0.38365008  0.12787827  0.17927045    -0.06200
N1523       N  0.36872098  0.13641054  0.19875386    -0.60500
N1524       N  0.40294247  0.07414582  0.14801848    -0.05200
N1525       N  0.40152045  0.04883711  0.14869322    -0.57700
Mn1526     Mn  0.38134141  0.12994576  0.13433405     1.20200
Mn1527     Mn  0.43254991  0.09452283  0.16798843     1.10100
Cl1528     Cl  0.43092762  0.12931027  0.13367960    -0.85700
C1529       C  0.37988943  0.04365572  0.13591580     0.96600
C1530       C  0.38079854  0.12715819  0.22063944     0.96400
N1531       N  0.33060823  0.14494684  0.38279347    -0.05800
N1532       N  0.31090423  0.12999002  0.38996850    -0.58000
N1533       N  0.36257171  0.16389107  0.32973564    -0.05500
N1534       N  0.36110456  0.16273371  0.30443575    -0.60100
N1535       N  0.37399640  0.14324614  0.33978208    -0.05100
N1536       N  0.38045415  0.12730857  0.32039218    -0.57900
N1537       N  0.32110255  0.16537350  0.37051644    -0.04800
N1538       N  0.29574397  0.16491310  0.36913751    -0.60400
C1539       C  0.28932812  0.14301257  0.38122672     0.96300
C1540       C  0.37218544  0.14012394  0.29851018     0.96100
N1541       N  0.38145233  0.23917798  0.34476534    -0.06000
N1542       N  0.39484224  0.25411115  0.32915096    -0.58500
N1543       N  0.32487762  0.22446331  0.37315459    -0.04100
N1544       N  0.29988551  0.22901363  0.37570881    -0.59800
N1545       N  0.33822413  0.24138508  0.38609544    -0.06100
N1546       N  0.32270296  0.25790520  0.39796321    -0.58800
N1547       N  0.36805050  0.22247577  0.33158725    -0.03800
N1548       N  0.37187907  0.22563975  0.30656522    -0.59900
Mn1549     Mn  0.34395219  0.19414789  0.35110272     1.18400
C1550       C  0.38897953  0.24508683  0.30549873     0.98400
C1551       C  0.29896910  0.24962915  0.39154350     0.99100
N1552       N  0.42014884  0.14009196  0.38652272    -0.06100
N1553       N  0.43884593  0.12455865  0.37723822    -0.62400
N1554       N  0.38973176  0.16003335  0.44046352    -0.04900
N1555       N  0.39034955  0.15808534  0.46572222    -0.63100
N1556       N  0.37637771  0.14140142  0.42968392    -0.05600
N1557       N  0.36750082  0.12609232  0.44859628    -0.62600
N1558       N  0.43111728  0.15840179  0.40022733    -0.04500
N1559       N  0.45636518  0.15593492  0.40071636    -0.63300
Mn1560     Mn  0.37525039  0.14035357  0.38467590     1.10700
C1561       C  0.46126452  0.13499188  0.38653870     0.99600
C1562       C  0.37660340  0.13712489  0.47088199     0.99700
N1563       N  0.37879036  0.23766386  0.42837887    -0.05600
N1564       N  0.36602692  0.25306463  0.44419723    -0.61000
N1565       N  0.43355331  0.21715529  0.39982885    -0.04900
N1566       N  0.45887221  0.21872460  0.39761814    -0.57700
N1567       N  0.42204137  0.23597354  0.38718276    -0.06200
N1568       N  0.43915986  0.25087815  0.37586008    -0.60500
N1569       N  0.39023962  0.21888549  0.44117848    -0.05200
N1570       N  0.38572653  0.22106259  0.46621404    -0.57700
Mn1571     Mn  0.38020344  0.23942631  0.38660083     1.20200
Mn1572     Mn  0.41134257  0.18861389  0.42065241     1.10100
Cl1573     Cl  0.37763734  0.18990972  0.38574013    -0.85700
C1574       C  0.37027868  0.24223257  0.46754155     0.96600
C1575       C  0.46188652  0.23957325  0.38224045     0.96400
N1576       N  0.58855588  0.76206297  0.63402568    -0.05800
N1577       N  0.57362594  0.74481510  0.64518034    -0.58000
N1578       N  0.61623502  0.78336639  0.57952640    -0.05500
N1579       N  0.61805503  0.78061759  0.55426733    -0.60100
N1580       N  0.63031300  0.76587891  0.59150974    -0.05100
N1581       N  0.64216711  0.75071946  0.57471351    -0.57900
N1582       N  0.57459298  0.77971405  0.62212837    -0.04800
N1583       N  0.54976004  0.77496624  0.62471012    -0.60400
C1584       C  0.54959494  0.75342852  0.63945794     0.96300
C1585       C  0.63466132  0.76051933  0.55165352     0.96100
N1586       N  0.62184027  0.86191159  0.59043237    -0.06000
N1587       N  0.62821553  0.87821736  0.57131833    -0.58500
N1588       N  0.56994968  0.83882140  0.62165404    -0.04100
N1589       N  0.54462537  0.83955753  0.62033378    -0.59800
N1590       N  0.57924895  0.85892363  0.63403272    -0.06100
N1591       N  0.55936248  0.87400005  0.64134212    -0.58800
N1592       N  0.61017183  0.84193866  0.58008029    -0.03800
N1593       N  0.60839050  0.84392868  0.55485040    -0.59900
Mn1594     Mn  0.59259726  0.81092331  0.60082091     1.18400
C1595       C  0.61953634  0.86635619  0.54928656     0.98400
C1596       C  0.53797643  0.86129149  0.63257688     0.99100
N1597       N  0.67221315  0.76783222  0.63296578    -0.06100
N1598       N  0.68921738  0.75521525  0.61866185    -0.62400
N1599       N  0.64131604  0.78219302  0.68873142    -0.04900
N1600       N  0.63698621  0.77943193  0.71372875    -0.63100
N1601       N  0.63017599  0.76380573  0.67563309    -0.05600
N1602       N  0.61781186  0.74805936  0.69132471    -0.62600
N1603       N  0.68351455  0.78595783  0.64625881    -0.04500
N1604       N  0.70854310  0.78614474  0.64146325    -0.63300
Mn1605     Mn  0.63050582  0.76391849  0.63356209     1.10700
C1606       C  0.71157867  0.76720663  0.62388831     0.99600
C1607       C  0.62207521  0.75829142  0.71483958     0.99700
N1608       N  0.62535395  0.86026167  0.68032175    -0.05600
N1609       N  0.61567932  0.87462845  0.69963373    -0.61000
N1610       N  0.68032236  0.84422275  0.64948136    -0.04900
N1611       N  0.70558396  0.84624447  0.64941968    -0.57700
N1612       N  0.66888990  0.86304361  0.63635427    -0.06200
N1613       N  0.68729380  0.87852823  0.62695569    -0.60500
N1614       N  0.63923162  0.84126818  0.69057700    -0.05200
N1615       N  0.63943339  0.84215015  0.71596357    -0.57700
Mn1616     Mn  0.62382992  0.86309582  0.63532160     1.20200
Mn1617     Mn  0.66128126  0.81333825  0.66912200     1.10100
Cl1618     Cl  0.62697236  0.81349198  0.63475947    -0.85700
C1619       C  0.62482726  0.86279557  0.72169868     0.96600
C1620       C  0.71006416  0.86747617  0.63551072     0.96400
N1621       N  0.23585052  0.34270013  0.38569120    -0.05800
N1622       N  0.25255653  0.32733746  0.39748604    -0.58000
N1623       N  0.21657811  0.37257508  0.33133444    -0.05500
N1624       N  0.21939503  0.37678495  0.30633627    -0.60100
N1625       N  0.23322082  0.38604469  0.34452836    -0.05100
N1626       N  0.24779046  0.39984746  0.32892289    -0.57900
N1627       N  0.21906907  0.32921342  0.37271237    -0.04800
N1628       N  0.22392985  0.30424708  0.37517068    -0.60400
C1629       C  0.24457267  0.30353254  0.39099058     0.96300
C1630       C  0.23858465  0.39415828  0.30528964     0.96100
N1631       N  0.13743375  0.37800449  0.33935646    -0.06000
N1632       N  0.12154061  0.38462559  0.31996640    -0.58500
N1633       N  0.15996588  0.32511913  0.37012493    -0.04100
N1634       N  0.15973952  0.29975426  0.36880347    -0.59800
N1635       N  0.13947456  0.33448135  0.38238930    -0.06100
N1636       N  0.12470941  0.31465783  0.38963981    -0.58800
N1637       N  0.15805337  0.36657056  0.32927535    -0.03800
N1638       N  0.15689149  0.36523043  0.30394648    -0.59900
Mn1639     Mn  0.18851871  0.34816054  0.35072922     1.18400
C1640       C  0.13431809  0.37642867  0.29801739     0.98400
C1641       C  0.13791689  0.29317924  0.38091860     0.99100
N1642       N  0.22996102  0.42643093  0.38725898    -0.06100
N1643       N  0.24484383  0.44360248  0.37599796    -0.62400
N1644       N  0.21304539  0.39436822  0.44111157    -0.04900
N1645       N  0.21551706  0.39005284  0.46616337    -0.63100
N1646       N  0.23184162  0.38304612  0.42821731    -0.05600
N1647       N  0.24752867  0.37057019  0.44397666    -0.62600
N1648       N  0.21112249  0.43786922  0.39994748    -0.04500
N1649       N  0.21265692  0.46321428  0.39780570    -0.63300
Mn1650     Mn  0.23357371  0.38462528  0.38641313     1.10700
C1651       C  0.23352148  0.46629451  0.38244876     0.99600
C1652       C  0.23688118  0.37485173  0.46739562     0.99700
N1653       N  0.13572942  0.37989952  0.42934780    -0.05600
N1654       N  0.12083823  0.37021774  0.44819431    -0.61000
N1655       N  0.15230337  0.43510233  0.40020697    -0.04900
N1656       N  0.14989566  0.46037301  0.40048588    -0.57700
N1657       N  0.13420372  0.42408405  0.38626013    -0.06200
N1658       N  0.11892173  0.44278394  0.37655230    -0.60500
N1659       N  0.15412828  0.39346791  0.44025368    -0.05200
N1660       N  0.15239022  0.39350513  0.46553660    -0.57700
Mn1661     Mn  0.13463622  0.37910828  0.38432046     1.20200
Mn1662     Mn  0.18260834  0.41540384  0.42063781     1.10100
Cl1663     Cl  0.18411954  0.38178183  0.38551826    -0.85700
C1664       C  0.13182933  0.37913280  0.47057514     0.96600
C1665       C  0.12922944  0.46525508  0.38590394     0.96400
N1666       N  0.57636497  0.62419468  0.87204502    -0.05800
N1667       N  0.55698396  0.63282686  0.88703556    -0.58000
N1668       N  0.60769959  0.57033668  0.85289803    -0.05500
N1669       N  0.60741412  0.54501299  0.85424335    -0.60100
N1670       N  0.62011359  0.58067707  0.87247586    -0.05100
N1671       N  0.62863955  0.56149609  0.88778349    -0.57900
N1672       N  0.56631691  0.61137953  0.85256945    -0.04800
N1673       N  0.54098525  0.61094579  0.85368330    -0.60400
C1674       C  0.53510109  0.62419888  0.87500783     0.96300
C1675       C  0.62034938  0.53943643  0.87582655     0.96100
N1676       N  0.62266933  0.58365806  0.77594683    -0.06000
N1677       N  0.63439948  0.56760852  0.75992268    -0.58500
N1678       N  0.56743217  0.61317732  0.79353687    -0.04100
N1679       N  0.54231183  0.61563008  0.79001401    -0.59800
N1680       N  0.58017832  0.62590667  0.77573945    -0.06100
N1681       N  0.56413310  0.63748619  0.75962096    -0.58800
N1682       N  0.61003923  0.57090506  0.79381129    -0.03800
N1683       N  0.61271025  0.54577362  0.79041255    -0.59900
Mn1684     Mn  0.58769762  0.59124943  0.82322214     1.18400
C1685       C  0.62832860  0.54415668  0.76952004     0.98400
C1686       C  0.54070145  0.63121842  0.76910729     0.99100
N1687       N  0.66587795  0.62667816  0.87298648    -0.06100
N1688       N  0.68479943  0.61793917  0.88839985    -0.62400
N1689       N  0.63527115  0.68080206  0.85325742    -0.04900
N1690       N  0.63574468  0.70613226  0.85467159    -0.63100
N1691       N  0.62226824  0.67038102  0.87260444    -0.05600
N1692       N  0.61353633  0.68949801  0.88781562    -0.62600
N1693       N  0.67649325  0.63950306  0.85363255    -0.04500
N1694       N  0.70179228  0.63988868  0.85524529    -0.63300
Mn1695     Mn  0.62109945  0.62548027  0.87458213     1.10700
C1696       C  0.70703688  0.62654861  0.87675959     0.99600
C1697       C  0.62228736  0.71164695  0.87605518     0.99700
N1698       N  0.62154678  0.66756520  0.77625897    -0.05600
N1699       N  0.60994919  0.68377629  0.76028061    -0.61000
N1700       N  0.67645372  0.63761901  0.79452103    -0.04900
N1701       N  0.70162318  0.63472650  0.79145389    -0.57700
N1702       N  0.66398793  0.62514874  0.77655020    -0.06200
N1703       N  0.68027431  0.61331132  0.76083160    -0.60500
N1704       N  0.63396403  0.68015119  0.79418392    -0.05200
N1705       N  0.63125892  0.70530921  0.79085325    -0.57700
Mn1706     Mn  0.62211295  0.62562165  0.77526783     1.20200
Mn1707     Mn  0.65576844  0.65972517  0.82386385     1.10100
Cl1708     Cl  0.62165066  0.62553427  0.82490822    -0.85700
C1709       C  0.61585642  0.70712932  0.76994562     0.96600
C1710       C  0.70355791  0.61913644  0.77068118     0.96400
N1711       N  0.33058790  0.37741531  0.52367876    -0.05800
N1712       N  0.31424433  0.36553789  0.50842306    -0.58000
N1713       N  0.35951164  0.43210355  0.54153550    -0.05500
N1714       N  0.36188342  0.45730607  0.53897288    -0.60100
N1715       N  0.37232986  0.41982240  0.52334842    -0.05100
N1716       N  0.38387974  0.43640377  0.50784167    -0.57900
N1717       N  0.31807570  0.38984069  0.54196978    -0.04800
N1718       N  0.29295149  0.38688780  0.53972001    -0.60400
C1719       C  0.29098770  0.37136170  0.51903732     0.96300
C1720       C  0.37743363  0.45956275  0.51818004     0.96100
N1721       N  0.37092236  0.42235004  0.61975800    -0.06000
N1722       N  0.37873560  0.44166362  0.63488662    -0.58500
N1723       N  0.31756886  0.39161241  0.60076262    -0.04100
N1724       N  0.29226163  0.39259465  0.60231911    -0.59800
N1725       N  0.32808240  0.37903519  0.62041265    -0.06100
N1726       N  0.30898895  0.37113741  0.63601920    -0.58800
N1727       N  0.35789634  0.43256028  0.60025851    -0.03800
N1728       N  0.35655102  0.45786475  0.60144389    -0.59900
Mn1729     Mn  0.33814565  0.41160927  0.57108994     1.18400
C1730       C  0.36944057  0.46364054  0.62284379     0.98400
C1731       C  0.28680522  0.37993898  0.62412057     0.99100
N1732       N  0.41499934  0.37766158  0.52320380    -0.06100
N1733       N  0.43135355  0.38979369  0.50789413    -0.62400
N1734       N  0.38563607  0.32297696  0.54179734    -0.04900
N1735       N  0.38255332  0.29784677  0.53973024    -0.63100
N1736       N  0.37297037  0.33544062  0.52363920    -0.05600
N1737       N  0.36078583  0.31906371  0.50867633    -0.62600
N1738       N  0.42751146  0.36490538  0.54128356    -0.04500
N1739       N  0.45264620  0.36791103  0.53883525    -0.63300
Mn1740     Mn  0.37276868  0.37760608  0.52237694     1.10700
C1741       C  0.45461593  0.38375416  0.51822816     0.99600
C1742       C  0.36669062  0.29584274  0.51931516     0.99700
N1743       N  0.37495916  0.33256737  0.62020330    -0.05600
N1744       N  0.36706122  0.31339626  0.63569335    -0.61000
N1745       N  0.42833870  0.36286089  0.60006848    -0.04900
N1746       N  0.45363801  0.36144279  0.60135338    -0.57700
N1747       N  0.41805894  0.37555802  0.61975142    -0.06200
N1748       N  0.43733204  0.38304114  0.63511818    -0.60500
N1749       N  0.38767780  0.32220567  0.60055971    -0.05200
N1750       N  0.38875586  0.29688785  0.60202026    -0.57700
Mn1751     Mn  0.37304448  0.37742040  0.62210157     1.20200
Mn1752     Mn  0.40740894  0.34311157  0.57085538     1.10100
Cl1753     Cl  0.37289002  0.37747225  0.57224795    -0.85700
C1754       C  0.37601187  0.29130955  0.62374893     0.96600
C1755       C  0.45936426  0.37394030  0.62301029     0.96400
N1756       N  0.38955059  0.67179733  0.63247138    -0.05800
N1757       N  0.37455634  0.69178017  0.63968159    -0.58000
N1758       N  0.40713775  0.64050493  0.57895863    -0.05500
N1759       N  0.40537859  0.64234019  0.55370590    -0.60100
N1760       N  0.38690244  0.62910628  0.58938729    -0.05100
N1761       N  0.37064166  0.62304336  0.57034641    -0.57900
N1762       N  0.40988071  0.68098507  0.62009275    -0.04800
N1763       N  0.40931424  0.70635022  0.61865761    -0.60400
C1764       C  0.38747375  0.71314127  0.63083303     0.96300
C1765       C  0.38281289  0.63154371  0.54825001     0.96100
N1766       N  0.48272498  0.61932792  0.59128185    -0.06000
N1767       N  0.49712839  0.60609647  0.57482532    -0.58500
N1768       N  0.46927453  0.67558540  0.62103276    -0.04100
N1769       N  0.47435122  0.70035000  0.62357124    -0.59800
N1770       N  0.48653090  0.66133824  0.63314333    -0.06100
N1771       N  0.50378119  0.67594968  0.64441211    -0.58800
N1772       N  0.46563822  0.63359078  0.57896564    -0.03800
N1773       N  0.46792149  0.63051105  0.55377621    -0.59900
Mn1774     Mn  0.43806078  0.65789322  0.59969847     1.18400
C1775       C  0.48728675  0.61298030  0.55163146     0.98400
C1776       C  0.49564301  0.70011114  0.63851767     0.99100
N1777       N  0.38486571  0.58211522  0.63583361    -0.06100
N1778       N  0.36940633  0.56367341  0.62677525    -0.62400
N1779       N  0.40589022  0.61173937  0.68970184    -0.04900
N1780       N  0.40444331  0.61132790  0.71506194    -0.63100
N1781       N  0.38707428  0.62563299  0.67919479    -0.05600
N1782       N  0.37224047  0.63509394  0.69830112    -0.62600
N1783       N  0.40350622  0.57071289  0.64917283    -0.04500
N1784       N  0.40141530  0.54549274  0.64960227    -0.63300
Mn1785     Mn  0.38503869  0.62718475  0.63422632     1.10700
C1786       C  0.38032764  0.54097871  0.63580679     0.99600
C1787       C  0.38363276  0.62580635  0.72051402     0.99700
N1788       N  0.48369753  0.62005831  0.67528911    -0.05600
N1789       N  0.49961562  0.63186915  0.69097590    -0.61000
N1790       N  0.46183270  0.56668167  0.64665549    -0.04900
N1791       N  0.46249338  0.54142553  0.64331301    -0.57700
N1792       N  0.48025338  0.57779013  0.63337617    -0.06200
N1793       N  0.49394973  0.56046190  0.62053165    -0.60500
N1794       N  0.46498735  0.60918151  0.68838907    -0.05200
N1795       N  0.46767227  0.61311997  0.71339266    -0.57700
Mn1796     Mn  0.48421541  0.61948218  0.63325799     1.20200
Mn1797     Mn  0.43407697  0.58945130  0.66877818     1.10100
Cl1798     Cl  0.43465031  0.62362331  0.63402370    -0.85700
C1799       C  0.48911809  0.62756412  0.71449538     0.96600
C1800       C  0.48232470  0.53804396  0.62663243     0.96400
N1801       N  0.65800846  0.48954646  0.63451572    -0.05800
N1802       N  0.67241157  0.50674143  0.64611895    -0.58000
N1803       N  0.63111060  0.46896240  0.57990878    -0.05500
N1804       N  0.62866622  0.47138597  0.55466775    -0.60100
N1805       N  0.61661135  0.48601045  0.59199385    -0.05100
N1806       N  0.60386881  0.50058734  0.57529914    -0.57900
N1807       N  0.67243505  0.47223381  0.62270651    -0.04800
N1808       N  0.69715637  0.47727487  0.62575083    -0.60400
C1809       C  0.69666322  0.49857340  0.64073718     0.96300
C1810       C  0.61129724  0.49084058  0.55221272     0.96100
N1811       N  0.62556367  0.39041755  0.58977866    -0.06000
N1812       N  0.61945535  0.37451749  0.57043247    -0.58500
N1813       N  0.67730193  0.41274936  0.62132468    -0.04100
N1814       N  0.70263965  0.41200429  0.61999219    -0.59800
N1815       N  0.66786651  0.39227231  0.63325444    -0.06100
N1816       N  0.68768541  0.37697960  0.64029108    -0.58800
N1817       N  0.63744009  0.41057769  0.57973717    -0.03800
N1818       N  0.63954486  0.40911942  0.55448884    -0.59900
Mn1819     Mn  0.65481859  0.44120031  0.60091343     1.18400
C1820       C  0.62844520  0.38682812  0.54859375     0.98400
C1821       C  0.70917269  0.38990383  0.63177563     0.99100
N1822       N  0.57452658  0.48345366  0.63376725    -0.06100
N1823       N  0.55729271  0.49701640  0.62066319    -0.62400
N1824       N  0.60575155  0.46817859  0.68913277    -0.04900
N1825       N  0.60989477  0.47084128  0.71412222    -0.63100
N1826       N  0.61655632  0.48690294  0.67599694    -0.05600
N1827       N  0.62854561  0.50276242  0.69160529    -0.62600
N1828       N  0.56332033  0.46517386  0.64716320    -0.04500
N1829       N  0.53810481  0.46577558  0.64361610    -0.63300
Mn1830     Mn  0.61621029  0.48737291  0.63400300     1.10700
C1831       C  0.53483650  0.48543758  0.62672078     0.99600
C1832       C  0.62440625  0.49227457  0.71514629     0.99700
N1833       N  0.62148034  0.38994746  0.67961991    -0.05600
N1834       N  0.63068246  0.37491567  0.69869582    -0.61000
N1835       N  0.56685064  0.40692595  0.64972421    -0.04900
N1836       N  0.54161751  0.40497616  0.65029972    -0.57700
N1837       N  0.57806548  0.38830707  0.63618841    -0.06200
N1838       N  0.55945478  0.37301943  0.62715065    -0.60500
N1839       N  0.60784704  0.40893416  0.69016595    -0.05200
N1840       N  0.60732721  0.40740601  0.71550220    -0.57700
Mn1841     Mn  0.62320810  0.38813644  0.63464938     1.20200
Mn1842     Mn  0.58584573  0.43734656  0.66938477     1.10100
Cl1843     Cl  0.62009939  0.43777985  0.63474142    -0.85700
C1844       C  0.62146878  0.38637383  0.72090520     0.96600
C1845       C  0.53686243  0.38401261  0.63638779     0.96400
N1846       N  0.32594452  0.61870541  0.38630561    -0.05800
N1847       N  0.30690728  0.63333006  0.37626564    -0.58000
N1848       N  0.35658106  0.59892538  0.44051484    -0.05500
N1849       N  0.35582554  0.60065399  0.46580492    -0.60100
N1850       N  0.36956388  0.61796062  0.42970702    -0.05100
N1851       N  0.37808615  0.63326220  0.44858690    -0.57900
N1852       N  0.31531302  0.60012276  0.40016601    -0.04800
N1853       N  0.28997268  0.60156020  0.40005343    -0.60400
C1854       C  0.28462311  0.62212886  0.38532535     0.96300
C1855       C  0.36912861  0.62188295  0.47093613     0.96100
N1856       N  0.36914049  0.52127789  0.42735160    -0.06000
N1857       N  0.38101581  0.50505206  0.44308780    -0.58500
N1858       N  0.31425515  0.54144336  0.39940815    -0.04100
N1859       N  0.28896743  0.53953209  0.39747538    -0.59800
N1860       N  0.32603195  0.52306963  0.38639552    -0.06100
N1861       N  0.30907386  0.50809045  0.37515761    -0.58800
N1862       N  0.35732700  0.53963776  0.44042189    -0.03800
N1863       N  0.36068619  0.53630089  0.46550523    -0.59900
Mn1864     Mn  0.33576529  0.57005637  0.42040127     1.18400
C1865       C  0.37585596  0.51491455  0.46665131     0.98400
C1866       C  0.28619201  0.51893900  0.38195062     0.99100
N1867       N  0.41587314  0.61565226  0.38297699    -0.06100
N1868       N  0.43543249  0.63017033  0.39117148    -0.62400
N1869       N  0.38460691  0.59755400  0.32949313    -0.04900
N1870       N  0.38557805  0.59902819  0.30415413    -0.63100
N1871       N  0.37237665  0.61753384  0.33983278    -0.05600
N1872       N  0.36474646  0.63329672  0.32063865    -0.62600
N1873       N  0.42575371  0.59569840  0.37030621    -0.04500
N1874       N  0.45113307  0.59608498  0.36955029    -0.63300
Mn1875     Mn  0.37095202  0.61953207  0.38469728     1.10700
C1876       C  0.45726701  0.61741617  0.38247649     0.99600
C1877       C  0.37329638  0.62113916  0.29853171     0.99700
N1878       N  0.36703370  0.52165512  0.34331884    -0.05600
N1879       N  0.35424498  0.50688636  0.32725925    -0.61000
N1880       N  0.42327236  0.53624362  0.37156293    -0.04900
N1881       N  0.44827836  0.53111204  0.37258036    -0.57700
N1882       N  0.41015741  0.51876876  0.38429702    -0.06200
N1883       N  0.42588039  0.50128140  0.39446921    -0.60500
N1884       N  0.38027884  0.53899296  0.33052995    -0.05200
N1885       N  0.37692490  0.53651948  0.30543396    -0.57700
Mn1886     Mn  0.36802666  0.52031870  0.38535608     1.20200
Mn1887     Mn  0.40367765  0.56710924  0.35040691     1.10100
Cl1888     Cl  0.36970815  0.56990373  0.38529377    -0.85700
C1889       C  0.36030042  0.51676909  0.30382543     0.96600
C1890       C  0.44950125  0.50952574  0.38725168     0.96400
N1891       N  0.57800320  0.12851937  0.89746451    -0.05800
N1892       N  0.55869953  0.12017760  0.88260786    -0.58000
N1893       N  0.60898767  0.18199645  0.91601021    -0.05500
N1894       N  0.60893434  0.20732338  0.91478448    -0.60100
N1895       N  0.62181223  0.17130036  0.89661148    -0.05100
N1896       N  0.63090195  0.19027689  0.88155315    -0.57900
N1897       N  0.56776293  0.14172954  0.91683447    -0.04800
N1898       N  0.54241241  0.14272991  0.91575094    -0.60400
C1899       C  0.53664943  0.12938384  0.89457743     0.96300
C1900       C  0.62246030  0.21257831  0.89346839     0.96100
N1901       N  0.62371958  0.16973350  0.99295484    -0.06000
N1902       N  0.63497132  0.18612665  0.00861879    -0.58500
N1903       N  0.56889275  0.14055379  0.97587255    -0.04100
N1904       N  0.54374458  0.13833096  0.97903933    -0.59800
N1905       N  0.58152659  0.12798842  0.99401173    -0.06100
N1906       N  0.56524310  0.11675994  0.01006643    -0.58800
N1907       N  0.61085457  0.18220055  0.97491936    -0.03800
N1908       N  0.61290951  0.20739285  0.97779471    -0.59900
Mn1909     Mn  0.58898152  0.16174243  0.94588314     1.18400
C1910       C  0.62833146  0.20941628  0.99858686     0.98400
C1911       C  0.54188859  0.12314252  0.00015246     0.99100
N1912       N  0.66794711  0.12451047  0.89638790    -0.06100
N1913       N  0.68701516  0.13329073  0.88123652    -0.62400
N1914       N  0.63742904  0.07103327  0.91707879    -0.04900
N1915       N  0.63791903  0.04566210  0.91634349    -0.63100
N1916       N  0.62433384  0.08130119  0.89765524    -0.05600
N1917       N  0.61554345  0.06195917  0.88309207    -0.62600
N1918       N  0.67850814  0.11155169  0.91575892    -0.04500
N1919       N  0.70385216  0.11106952  0.91438567    -0.63300
Mn1920     Mn  0.62298019  0.12636661  0.89494333     1.10700
C1921       C  0.70927225  0.12450019  0.89301260     0.99600
C1922       C  0.62437461  0.03987438  0.89532239     0.99700
N1923       N  0.62369761  0.08543112  0.99393836    -0.05600
N1924       N  0.61162111  0.06943172  0.00962734    -0.61000
N1925       N  0.67834526  0.11414627  0.97461638    -0.04900
N1926       N  0.70354415  0.11666392  0.97681479    -0.57700
N1927       N  0.66607605  0.12718081  0.99268037    -0.06200
N1928       N  0.68267542  0.13901450  0.00769590    -0.60500
N1929       N  0.63619014  0.07255275  0.97592644    -0.05200
N1930       N  0.63306552  0.04747248  0.97884227    -0.57700
Mn1931     Mn  0.62380877  0.12757687  0.99438885     1.20200
Mn1932     Mn  0.65776848  0.09216717  0.94586430     1.10100
Cl1933     Cl  0.62335363  0.12694848  0.94465659    -0.85700
C1934       C  0.61740951  0.04598006  0.99964522     0.96600
C1935       C  0.70582764  0.13250946  0.99723364     0.96400
N1936       N  0.16436660  0.99085839  0.63490771    -0.05800
N1937       N  0.17994392  0.00644639  0.64726470    -0.58000
N1938       N  0.13623759  0.97270024  0.57969617    -0.05500
N1939       N  0.13383124  0.97562243  0.55449032    -0.60100
N1940       N  0.12291550  0.99046783  0.59209140    -0.05100
N1941       N  0.11097693  0.00599387  0.57565366    -0.57900
N1942       N  0.17763200  0.97303920  0.62251487    -0.04800
N1943       N  0.20262957  0.97603077  0.62596533    -0.60400
C1944       C  0.20360405  0.99663042  0.64177280     0.96300
C1945       C  0.11769101  0.99615317  0.55240588     0.96100
N1946       N  0.12684224  0.89419285  0.58919786    -0.06000
N1947       N  0.11965285  0.87873078  0.56987747    -0.58500
N1948       N  0.17968017  0.91401559  0.62061999    -0.04100
N1949       N  0.20503563  0.91269989  0.62014228    -0.59800
N1950       N  0.16941829  0.89429345  0.63308015    -0.06100
N1951       N  0.18866798  0.87891605  0.64140970    -0.58800
N1952       N  0.13943470  0.91385545  0.57904353    -0.03800
N1953       N  0.14102851  0.91245239  0.55373960    -0.59900
Mn1954     Mn  0.15843268  0.94344860  0.60032631     1.18400
C1955       C  0.12879073  0.89072997  0.54792142     0.98400
C1956       C  0.21071526  0.89098951  0.63303715     0.99100
N1957       N  0.08046550  0.98949277  0.63343352    -0.06100
N1958       N  0.06413039  0.00398312  0.62015271    -0.62400
N1959       N  0.10984299  0.97207206  0.68887186    -0.04900
N1960       N  0.11278621  0.97459274  0.71403512    -0.63100
N1961       N  0.12204239  0.99030377  0.67630177    -0.05600
N1962       N  0.13376487  0.00574102  0.69256824    -0.62600
N1963       N  0.06815983  0.97146805  0.64620402    -0.04500
N1964       N  0.04308216  0.97321349  0.64207521    -0.63300
Mn1965     Mn  0.12238000  0.99126902  0.63418723     1.10700
C1966       C  0.04106550  0.99327374  0.62547147     0.99600
C1967       C  0.12804804  0.99539601  0.71587994     0.99700
N1968       N  0.12287099  0.89380911  0.67904965    -0.05600
N1969       N  0.13187367  0.87870362  0.69815227    -0.61000
N1970       N  0.06872612  0.91283935  0.64856341    -0.04900
N1971       N  0.04342000  0.91141604  0.64933503    -0.57700
N1972       N  0.07945183  0.89359505  0.63552829    -0.06200
N1973       N  0.06047175  0.87840727  0.62710789    -0.60500
N1974       N  0.10963382  0.91309839  0.68952643    -0.05200
N1975       N  0.10924190  0.91174009  0.71488334    -0.57700
Mn1976     Mn  0.12459381  0.89191146  0.63415792     1.20200
Mn1977     Mn  0.08892973  0.94241421  0.66853298     1.10100
Cl1978     Cl  0.12358730  0.94158868  0.63427011    -0.85700
C1979       C  0.12300184  0.89045249  0.72033310     0.96600
C1980       C  0.03813009  0.89013031  0.63605499     0.96400
N1981       N  0.12121534  0.67094548  0.99344022    -0.05800
N1982       N  0.13327621  0.68740350  0.00843671    -0.58000
N1983       N  0.06671445  0.64134615  0.97592583    -0.05500
N1984       N  0.04160594  0.63807836  0.97824305    -0.60100
N1985       N  0.07927592  0.62851925  0.99392491    -0.05100
N1986       N  0.06298812  0.61607697  0.00903887    -0.57900
N1987       N  0.10845624  0.68338747  0.97530014    -0.04800
N1988       N  0.11134510  0.70854940  0.97743992    -0.60400
C1989       C  0.12714421  0.71063184  0.99790464     0.96300
C1990       C  0.03971868  0.62202537  0.99868893     0.96100
N1991       N  0.07603748  0.62988408  0.89791609    -0.06000
N1992       N  0.05666532  0.62116786  0.88333973    -0.58500
N1993       N  0.10627802  0.68399340  0.91639720    -0.04100
N1994       N  0.10569532  0.70934990  0.91503873    -0.59800
N1995       N  0.11925252  0.67348653  0.89700146    -0.06100
N1996       N  0.12794893  0.69260642  0.88186472    -0.58800
N1997       N  0.06576711  0.64300575  0.91732206    -0.03800
N1998       N  0.04041450  0.64357728  0.91658781    -0.59900
Mn1999     Mn  0.08669795  0.66310314  0.94627278     1.18400
C2000       C  0.03460007  0.63007570  0.89557296     0.98400
C2001       C  0.11909996  0.71483511  0.89366014     0.99100
N2002       N  0.12194196  0.58623901  0.99397438    -0.06100
N2003       N  0.11036674  0.56962733  0.00945666    -0.62400
N2004       N  0.17632229  0.61605193  0.97569255    -0.04900
N2005       N  0.20145792  0.61850800  0.97860182    -0.63100
N2006       N  0.16361933  0.62864712  0.99375674    -0.05600
N2007       N  0.17978946  0.64015493  0.00945441    -0.62600
N2008       N  0.13485602  0.57393082  0.97585099    -0.04500
N2009       N  0.13251418  0.54873438  0.97841976    -0.63300
Mn2010     Mn  0.12146513  0.62859994  0.99482426     1.10700
C2011       C  0.11692412  0.54645323  0.99916415     0.99600
C2012       C  0.20317881  0.63391259  0.99943555     0.99700
N2013       N  0.16622280  0.62734730  0.89726936    -0.05600
N2014       N  0.18531534  0.63640218  0.88231720    -0.61000
N2015       N  0.13660668  0.57320783  0.91706544    -0.04900
N2016       N  0.13774061  0.54786253  0.91592957    -0.57700
N2017       N  0.12342088  0.58345028  0.89768809    -0.06200
N2018       N  0.11525964  0.56412723  0.88273769    -0.60500
N2019       N  0.17680838  0.61451860  0.91672934    -0.05200
N2020       N  0.20215026  0.61442109  0.91563007    -0.57700
Mn2021     Mn  0.12118436  0.62848805  0.89536280     1.20200
Mn2022     Mn  0.15628876  0.59432871  0.94632519     1.10100
Cl2023     Cl  0.12141029  0.62861482  0.94507185    -0.85700
C2024       C  0.20757002  0.62795251  0.89434439     0.96600
C2025       C  0.12453141  0.54207998  0.89469259     0.96400
N2026       N  0.88324293  0.58135846  0.13671369    -0.05800
N2027       N  0.86774598  0.56224772  0.12924371    -0.58000
N2028       N  0.90441080  0.61180231  0.18962790    -0.05500
N2029       N  0.90355521  0.61073756  0.21500844    -0.60100
N2030       N  0.88453560  0.62470414  0.17987170    -0.05100
N2031       N  0.86953788  0.63272797  0.19950288    -0.57900
N2032       N  0.90317500  0.57085342  0.14888130    -0.04800
N2033       N  0.90190554  0.54556346  0.15000253    -0.60400
C2034       C  0.87999987  0.54008585  0.13788468     0.96300
C2035       C  0.88198599  0.62371562  0.22125862     0.96100
N2036       N  0.98064733  0.62582543  0.17264385    -0.06000
N2037       N  0.99584836  0.63909070  0.18782859    -0.58500
N2038       N  0.96207136  0.57058133  0.14465550    -0.04100
N2039       N  0.96529727  0.54535900  0.14225544    -0.59800
N2040       N  0.97946534  0.58298546  0.13113184    -0.06100
N2041       N  0.99496940  0.56659098  0.11905734    -0.58800
N2042       N  0.96326312  0.61348077  0.18625282    -0.03800
N2043       N  0.96619776  0.61788719  0.21114697    -0.59900
Mn2044     Mn  0.93330511  0.59149831  0.16752500     1.18400
C2045       C  0.98630064  0.63419522  0.21161150     0.98400
C2046       C  0.98561143  0.54330614  0.12591060     0.99100
N2047       N  0.88365132  0.67135988  0.13347625    -0.06100
N2048       N  0.86912255  0.69072995  0.14299242    -0.62400
N2049       N  0.90079919  0.64077603  0.07890099    -0.04900
N2050       N  0.89849038  0.64171972  0.05366723    -0.63100
N2051       N  0.88169662  0.62816105  0.09006574    -0.05600
N2052       N  0.86574815  0.62014538  0.07150053    -0.62600
N2053       N  0.90262674  0.68153081  0.11976244    -0.04500
N2054       N  0.90154966  0.70690573  0.11956001    -0.63300
Mn2055     Mn  0.88120029  0.62642165  0.13504646     1.10700
C2056       C  0.88082140  0.71273356  0.13391815     0.99600
C2057       C  0.87681631  0.62899221  0.04895447     0.99700
N2058       N  0.97807459  0.62454024  0.08899225    -0.05600
N2059       N  0.99372413  0.61279649  0.07261469    -0.61000
N2060       N  0.96206436  0.68020462  0.11819317    -0.04900
N2061       N  0.96644178  0.70525722  0.11915671    -0.57700
N2062       N  0.98033413  0.66715026  0.13013378    -0.06200
N2063       N  0.99764228  0.68291849  0.13965952    -0.60500
N2064       N  0.96003434  0.63758531  0.07668755    -0.05200
N2065       N  0.96304262  0.63520690  0.05144101    -0.57700
Mn2066     Mn  0.98040047  0.62503818  0.13075749     1.20200
Mn2067     Mn  0.93130372  0.66020554  0.09822618     1.10100
Cl2068     Cl  0.93082896  0.62581020  0.13287126    -0.85700
C2069       C  0.98383456  0.61927297  0.04939502     0.96600
C2070       C  0.98846318  0.70652646  0.13294477     0.96400
N2071       N  0.88911642  0.17383781  0.63340019    -0.05800
N2072       N  0.87333490  0.19290160  0.64137878    -0.58000
N2073       N  0.90982646  0.14444757  0.57953832    -0.05500
N2074       N  0.90882352  0.14613192  0.55419846    -0.60100
N2075       N  0.89013879  0.13156438  0.58929577    -0.05100
N2076       N  0.87510362  0.12429742  0.56966214    -0.57900
N2077       N  0.90904065  0.18432857  0.62148576    -0.04800
N2078       N  0.90748348  0.20966346  0.62103617    -0.60400
C2079       C  0.88540341  0.21506961  0.63336496     0.96300
C2080       C  0.88734407  0.13365961  0.54792895     0.96100
N2081       N  0.98630039  0.12842555  0.59371181    -0.06000
N2082       N  0.00227768  0.11688929  0.57742372    -0.58500
N2083       N  0.96812867  0.18277728  0.62456142    -0.04100
N2084       N  0.97106994  0.20773390  0.62849527    -0.59800
N2085       N  0.98579564  0.16934508  0.63698728    -0.06100
N2086       N  0.00116098  0.18471054  0.64986758    -0.58800
N2087       N  0.96874297  0.14187744  0.58117116    -0.03800
N2088       N  0.97223729  0.13995348  0.55599452    -0.59900
Mn2089     Mn  0.93897105  0.16357393  0.60155562     1.18400
C2090       C  0.99291908  0.12399014  0.55409625     0.98400
C2091       C  0.99143473  0.20845829  0.64466353     0.99100
N2092       N  0.88884197  0.08395114  0.63571983    -0.06100
N2093       N  0.87358770  0.06495854  0.62746492    -0.62400
N2094       N  0.90748366  0.11408059  0.68993048    -0.04900
N2095       N  0.90576327  0.11360214  0.71525966    -0.63100
N2096       N  0.88824890  0.12719778  0.67920757    -0.05600
N2097       N  0.87281750  0.13605220  0.69811931    -0.62600
N2098       N  0.90796257  0.07328193  0.64897660    -0.04500
N2099       N  0.90639633  0.04798697  0.65003679    -0.63300
Mn2100     Mn  0.88703142  0.12906129  0.63427858     1.10700
C2101       C  0.88514883  0.04266317  0.63671257     0.99600
C2102       C  0.88430720  0.12718699  0.72043731     0.99700
N2103       N  0.98483110  0.12690080  0.67773503    -0.05600
N2104       N  0.99981000  0.13907170  0.69407467    -0.61000
N2105       N  0.96659327  0.07307321  0.64721821    -0.04900
N2106       N  0.96828924  0.04804532  0.64275702    -0.57700
N2107       N  0.98466462  0.08550976  0.63464404    -0.06200
N2108       N  0.99915286  0.06931651  0.62118703    -0.60500
N2109       N  0.96651179  0.11467438  0.69012734    -0.05200
N2110       N  0.96855535  0.11802117  0.71529755    -0.57700
Mn2111     Mn  0.98634283  0.12742172  0.63575601     1.20200
Mn2112     Mn  0.93720949  0.09361448  0.66932285     1.10100
Cl2113     Cl  0.93668424  0.12838980  0.63514705    -0.85700
C2114       C  0.98914417  0.13357774  0.71726663     0.96600
C2115       C  0.98839086  0.04620525  0.62619437     0.96400
N2116       N  0.58122862  0.98709471  0.13389727    -0.05800
N2117       N  0.56508976  0.00306859  0.12208966    -0.58000
N2118       N  0.61157090  0.96884654  0.18841141    -0.05500
N2119       N  0.61595861  0.97119421  0.21336998    -0.60100
N2120       N  0.62433768  0.98621628  0.17518541    -0.05100
N2121       N  0.63788488  0.00081571  0.19073388    -0.57900
N2122       N  0.56852498  0.96966896  0.14709526    -0.04800
N2123       N  0.54338379  0.97329266  0.14474257    -0.60400
C2124       C  0.54168087  0.99390603  0.12879248     0.96300
C2125       C  0.63272204  0.99089042  0.21432487     0.96100
N2126       N  0.62059567  0.89015917  0.18026725    -0.06000
N2127       N  0.62837819  0.87463817  0.19958952    -0.58500
N2128       N  0.56693514  0.91073033  0.14996113    -0.04100
N2129       N  0.54159551  0.90994905  0.15113743    -0.59800
N2130       N  0.57695907  0.89083655  0.13733902    -0.06100
N2131       N  0.55751349  0.87590267  0.12961640    -0.58800
N2132       N  0.60825234  0.91015510  0.19045558    -0.03800
N2133       N  0.60733052  0.90891629  0.21580951    -0.59900
Mn2134     Mn  0.58864361  0.93993331  0.16913595     1.18400
C2135       C  0.61979712  0.88694627  0.22160041     0.98400
C2136       C  0.53561707  0.88839750  0.13854990     0.99100
N2137       N  0.66530748  0.98558037  0.13248173    -0.06100
N2138       N  0.68156972  0.00201927  0.14265651    -0.62400
N2139       N  0.63495573  0.96728106  0.07868102    -0.04900
N2140       N  0.63201685  0.97033401  0.05351914    -0.63100
N2141       N  0.62249104  0.98547855  0.09134887    -0.05600
N2142       N  0.61060310  0.00134369  0.07525957    -0.62600
N2143       N  0.67780909  0.96728130  0.12001960    -0.04500
N2144       N  0.70298719  0.97080249  0.12124117    -0.63300
Mn2145     Mn  0.62328671  0.98693477  0.13325077     1.10700
C2146       C  0.70489319  0.99227969  0.13579059     0.99600
C2147       C  0.61641138  0.99137223  0.05188250     0.99700
N2148       N  0.62327886  0.88918987  0.09036677    -0.05600
N2149       N  0.61438518  0.87400974  0.07156365    -0.61000
N2150       N  0.67747785  0.90797668  0.12014612    -0.04900
N2151       N  0.70281661  0.90645146  0.12000429    -0.57700
N2152       N  0.66691157  0.88908411  0.13365492    -0.06200
N2153       N  0.68598312  0.87413437  0.14312153    -0.60500
N2154       N  0.63638022  0.90810423  0.07944960    -0.05200
N2155       N  0.63678669  0.90640055  0.05413184    -0.57700
Mn2156     Mn  0.62193444  0.88773454  0.13537592     1.20200
Mn2157     Mn  0.65686824  0.93758656  0.09937874     1.10100
Cl2158     Cl  0.62267400  0.93734646  0.13423837    -0.85700
C2159       C  0.62318640  0.88531147  0.04911512     0.96600
C2160       C  0.70821462  0.88550267  0.13418295     0.96400
C2161       C  0.01591683  0.61662711  0.01122047    -0.13000
C2162       C  0.99838454  0.61592804  0.02632360    -0.14600
C2163       C  0.01739203  0.00609918  0.61997340    -0.13000
C2164       C  0.00104425  0.02255506  0.62021232    -0.14600
C2165       C  0.61250724  0.02253093  0.01298815    -0.13000
C2166       C  0.61228495  0.00557201  0.02873589    -0.14600
C2167       C  0.37446756  0.63016183  0.52137528    -0.13000
C2168       C  0.37271284  0.62944134  0.49781181    -0.14600
C2169       C  0.49415857  0.51372154  0.62167468    -0.13000
C2170       C  0.51055860  0.49729907  0.62166534    -0.14600
C2171       C  0.51001874  0.37666426  0.63228733    -0.13000
C2172       C  0.48642340  0.37601190  0.63068542    -0.14600
C2173       C  0.38129694  0.48336321  0.50507280    -0.13000
C2174       C  0.38061538  0.50059325  0.48961770    -0.14600
C2175       C  0.37268415  0.51426383  0.63174986    -0.13000
C2176       C  0.37182902  0.49069263  0.63027472    -0.14600
C2177       C  0.63179709  0.52117088  0.75501894    -0.13000
C2178       C  0.63043118  0.50531640  0.73837035    -0.14600
C2179       C  0.51778824  0.63461657  0.75455147    -0.13000
C2180       C  0.50208800  0.63337673  0.73777729    -0.14600
C2181       C  0.26236796  0.50627808  0.37839066    -0.13000
C2182       C  0.24602556  0.49020410  0.37863683    -0.14600
C2183       C  0.26731046  0.36748501  0.50601810    -0.13000
C2184       C  0.25031400  0.36887820  0.49051272    -0.14600
C2185       C  0.52725686  0.73829234  0.64338652    -0.13000
C2186       C  0.51089021  0.72221263  0.64300244    -0.14600
C2187       C  0.61517331  0.74561762  0.73817689    -0.13000
C2188       C  0.61301972  0.73010159  0.75518722    -0.14600
C2189       C  0.25967604  0.28092112  0.39558283    -0.13000
C2190       C  0.27621889  0.26459685  0.39583527    -0.14600
C2191       C  0.36400306  0.25531922  0.49075837    -0.13000
C2192       C  0.36259478  0.27215933  0.50641622    -0.14600
C2193       C  0.37388128  0.13061601  0.24784007    -0.13000
C2194       C  0.37350972  0.13213261  0.27145977    -0.14600
C2195       C  0.51838455  0.00806050  0.12460658    -0.13000
C2196       C  0.50161399  0.02417140  0.12454946    -0.14600
C2197       C  0.50103360  0.11954301  0.02911747    -0.13000
C2198       C  0.51830488  0.11926095  0.01367928    -0.14600
C2199       C  0.37061532  0.62906862  0.27148894    -0.13000
C2200       C  0.36944422  0.63049072  0.24787302    -0.14600
C2201       C  0.24347373  0.63815072  0.02856116    -0.13000
C2202       C  0.22663091  0.63807761  0.01282167    -0.14600
C2203       C  0.37327911  0.26432951  0.63152657    -0.13000
C2204       C  0.37205984  0.24076838  0.63292650    -0.14600
C2205       C  0.37214355  0.12797821  0.52126301    -0.13000
C2206       C  0.37327630  0.12921400  0.49770298    -0.14600
C2207       C  0.22657217  0.01041956  0.64647543    -0.13000
C2208       C  0.24284685  0.02656586  0.64597604    -0.14600
C2209       C  0.48569397  0.25232472  0.37887981    -0.13000
C2210       C  0.50159515  0.26880060  0.37938312    -0.14600
C2211       C  0.49600459  0.38839666  0.49033970    -0.13000
C2212       C  0.47842781  0.38855496  0.50542705    -0.14600
C2213       C  0.62635345  0.37779815  0.49793947    -0.13000
C2214       C  0.62709432  0.37901914  0.52154483    -0.14600
C2215       C  0.47239025  0.49427216  0.39029893    -0.13000
C2216       C  0.48928072  0.47821216  0.39035846    -0.14600
C2217       C  0.48449012  0.62413672  0.38570170    -0.13000
C2218       C  0.50808379  0.62526701  0.38735328    -0.14600
C2219       C  0.51715404  0.60988223  0.51183932    -0.13000
C2220       C  0.50081919  0.60858142  0.52815284    -0.14600
C2221       C  0.60866463  0.52054477  0.51216842    -0.13000
C2222       C  0.60737700  0.50435419  0.52863453    -0.14600
C2223       C  0.62228984  0.51288997  0.38624690    -0.13000
C2224       C  0.62106944  0.48933813  0.38454704    -0.14600
C2225       C  0.63456669  0.72965044  0.51261971    -0.13000
C2226       C  0.63697833  0.74621677  0.52842149    -0.14600
C2227       C  0.37409408  0.26677478  0.14321915    -0.13000
C2228       C  0.37484307  0.24327283  0.14045520    -0.14600
C2229       C  0.37144072  0.51638747  0.13811412    -0.13000
C2230       C  0.37310245  0.49286086  0.14025260    -0.14600
C2231       C  0.35831348  0.48631510  0.26477882    -0.13000
C2232       C  0.35640541  0.50292365  0.28063999    -0.14600
C2233       C  0.26967736  0.39828231  0.26667824    -0.13000
C2234       C  0.25274514  0.39934650  0.28240028    -0.14600
C2235       C  0.39164063  0.27699416  0.26743951    -0.13000
C2236       C  0.39340307  0.25978129  0.28279331    -0.14600
C2237       C  0.47887990  0.36495567  0.26691169    -0.13000
C2238       C  0.49573274  0.36283478  0.28250401    -0.14600
C2239       C  0.24084032  0.52519839  0.14012849    -0.13000
C2240       C  0.22495017  0.50859704  0.13908034    -0.14600
C2241       C  0.23787476  0.38018935  0.13850157    -0.13000
C2242       C  0.26137490  0.37955747  0.14129476    -0.14600
C2243       C  0.12644249  0.37823620  0.27086265    -0.13000
C2244       C  0.12489120  0.37897061  0.24720058    -0.14600
C2245       C  0.11271707  0.52249977  0.01194264    -0.13000
C2246       C  0.11286413  0.50469232  0.02677018    -0.14600
C2247       C  0.01624294  0.50344355  0.12178050    -0.13000
C2248       C  0.99975546  0.51990161  0.12183669    -0.14600
C2249       C  0.25982320  0.37716200  0.63196178    -0.13000
C2250       C  0.23624552  0.37589989  0.63326861    -0.14600
C2251       C  0.24750759  0.23550989  0.61814020    -0.13000
C2252       C  0.23100199  0.25182571  0.61827796    -0.14600
C2253       C  0.12337049  0.37348950  0.52094471    -0.13000
C2254       C  0.12433696  0.37493398  0.49738903    -0.14600
C2255       C  0.02194934  0.24716854  0.64922196    -0.13000
C2256       C  0.00542621  0.23125597  0.64971999    -0.14600
C2257       C  0.62391010  0.37565901  0.27160240    -0.13000
C2258       C  0.62542442  0.37460067  0.24797943    -0.14600
C2259       C  0.50236684  0.23258926  0.14128479    -0.13000
C2260       C  0.51913188  0.24831891  0.14160214    -0.14600
C2261       C  0.51096140  0.37754619  0.13885339    -0.13000
C2262       C  0.48742725  0.37905709  0.14104421    -0.14600
C2263       C  0.63183839  0.24984062  0.02775681    -0.13000
C2264       C  0.63201285  0.23297226  0.01201135    -0.14600
C2265       C  0.24215892  0.11884758  0.73668878    -0.13000
C2266       C  0.22623541  0.11834150  0.75348657    -0.14600
C2267       C  0.13285442  0.02400040  0.75641467    -0.13000
C2268       C  0.13270634  0.00837300  0.73947789    -0.14600
C2269       C  0.11250687  0.24864749  0.73843470    -0.13000
C2270       C  0.11155106  0.23290622  0.75535562    -0.14600
C2271       C  0.00168511  0.13890107  0.74094109    -0.13000
C2272       C  0.01740749  0.13957629  0.75775496    -0.14600
C2273       C  0.75217214  0.73979048  0.61728144    -0.13000
C2274       C  0.73586548  0.75624026  0.61732696    -0.14600
C2275       C  0.71856454  0.51411184  0.64529876    -0.13000
C2276       C  0.73426257  0.53087108  0.64549734    -0.14600
C2277       C  0.74203048  0.61842767  0.73900128    -0.13000
C2278       C  0.72659911  0.61617080  0.75606886    -0.14600
C2279       C  0.74194975  0.64124815  0.52896581    -0.13000
C2280       C  0.72568859  0.63904393  0.51281472    -0.14600
C2281       C  0.74558723  0.23226398  0.11933955    -0.13000
C2282       C  0.72889497  0.24848002  0.11968819    -0.14600
C2283       C  0.74704036  0.13672680  0.02511651    -0.13000
C2284       C  0.72969185  0.13678054  0.00990552    -0.14600
C2285       C  0.74422067  0.02288461  0.13794442    -0.13000
C2286       C  0.72801913  0.00656871  0.13841642    -0.14600
C2287       C  0.12175010  0.49205061  0.38071997    -0.13000
C2288       C  0.12075534  0.51553930  0.37803659    -0.14600
C2289       C  0.23414855  0.62936123  0.37722112    -0.13000
C2290       C  0.25764663  0.62881352  0.37993698    -0.14600
C2291       C  0.22750157  0.61307702  0.25254197    -0.13000
C2292       C  0.24464239  0.61450002  0.23711547    -0.14600
C2293       C  0.13275141  0.52146005  0.25054633    -0.13000
C2294       C  0.13276749  0.50452830  0.23494122    -0.14600
C2295       C  0.01687152  0.64072853  0.24997440    -0.13000
C2296       C  0.00002280  0.64025373  0.23433431    -0.14600
C2297       C  0.10907622  0.74915255  0.23376482    -0.13000
C2298       C  0.10862162  0.73205160  0.24929076    -0.14600
C2299       C  0.13212509  0.75189821  0.02554708    -0.13000
C2300       C  0.13186581  0.73447904  0.01042953    -0.14600
C2301       C  0.24426492  0.73500031  0.11988692    -0.13000
C2302       C  0.22818271  0.75177579  0.11939842    -0.14600
C2303       C  0.00321158  0.72941722  0.13562492    -0.13000
C2304       C  0.01927936  0.74591059  0.13572145    -0.14600
C2305       C  0.62406607  0.23912731  0.37821784    -0.13000
C2306       C  0.62310734  0.26263372  0.38111152    -0.14600
C2307       C  0.51151443  0.12593185  0.37959506    -0.13000
C2308       C  0.48802346  0.12715868  0.38192742    -0.14600
C2309       C  0.60997789  0.23130185  0.25200994    -0.13000
C2310       C  0.61091086  0.24838858  0.23646043    -0.14600
C2311       C  0.72769986  0.11363517  0.24960634    -0.13000
C2312       C  0.74441078  0.11418719  0.23363537    -0.14600
C2313       C  0.50017606  0.13849825  0.23755503    -0.13000
C2314       C  0.51732728  0.13797475  0.25294487    -0.14600
C2315       C  0.63820514  0.02097205  0.25320157    -0.13000
C2316       C  0.63843516  0.00429205  0.23735091    -0.14600
C2317       C  0.12881581  0.24246218  0.38395609    -0.13000
C2318       C  0.13074648  0.26599319  0.38288759    -0.14600
C2319       C  0.26220393  0.13553594  0.38312530    -0.13000
C2320       C  0.23870833  0.13317637  0.38412941    -0.14600
C2321       C  0.13783579  0.23471866  0.51095950    -0.13000
C2322       C  0.13751198  0.25024090  0.52801223    -0.14600
C2323       C  0.23187136  0.14072381  0.50970759    -0.13000
C2324       C  0.24769765  0.14090295  0.52646840    -0.14600
C2325       C  0.00699561  0.12029642  0.53080227    -0.13000
C2326       C  0.02307813  0.12083807  0.51417787    -0.14600
C2327       C  0.11395974  0.00997571  0.52895841    -0.13000
C2328       C  0.11496125  0.02612763  0.51241963    -0.14600
C2329       C  0.87018375  0.74133105  0.63106948    -0.13000
C2330       C  0.87181786  0.76491027  0.62911525    -0.14600
C2331       C  0.76033385  0.87706313  0.62910417    -0.13000
C2332       C  0.73678366  0.87537136  0.63098216    -0.14600
C2333       C  0.01113136  0.88251901  0.63296815    -0.13000
C2334       C  0.98752662  0.88086895  0.63189833    -0.14600
C2335       C  0.87573491  0.99209453  0.63265148    -0.13000
C2336       C  0.87743850  0.01568514  0.63378415    -0.14600
C2337       C  0.87316904  0.12414775  0.26992033    -0.13000
C2338       C  0.87129667  0.12552361  0.24628344    -0.14600
C2339       C  0.73766145  0.12607049  0.37648123    -0.13000
C2340       C  0.76121768  0.12542699  0.37900809    -0.14600
C2341       C  0.01202293  0.12962474  0.38597863    -0.13000
C2342       C  0.98842214  0.12799936  0.38437337    -0.14600
C2343       C  0.87803751  0.13077032  0.49707460    -0.13000
C2344       C  0.87991226  0.13166601  0.52069039    -0.14600
C2345       C  0.88718473  0.98737180  0.50915676    -0.13000
C2346       C  0.88701034  0.00442818  0.49349894    -0.14600
C2347       C  0.12006951  0.87776436  0.27050992    -0.13000
C2348       C  0.12133986  0.87602434  0.24689268    -0.14600
C2349       C  0.12110119  0.76516880  0.37819403    -0.13000
C2350       C  0.12174762  0.74164730  0.37541625    -0.14600
C2351       C  0.12537741  0.01579579  0.38535736    -0.13000
C2352       C  0.12376693  0.99218047  0.38400056    -0.14600
C2353       C  0.99624250  0.98380794  0.39958444    -0.13000
C2354       C  0.97999874  0.00043484  0.39937186    -0.14600
C2355       C  0.12599242  0.88105880  0.49727539    -0.13000
C2356       C  0.12681832  0.88290011  0.52086352    -0.14600
C2357       C  0.98292420  0.89101187  0.50936319    -0.13000
C2358       C  0.99992549  0.89034935  0.49365950    -0.14600
C2359       C  0.77195327  0.87005748  0.50439891    -0.13000
C2360       C  0.75433584  0.86890324  0.48961907    -0.14600
C2361       C  0.62137511  0.87462425  0.52232133    -0.13000
C2362       C  0.62236993  0.87599703  0.49871039    -0.14600
C2363       C  0.62523490  0.76305403  0.38653224    -0.13000
C2364       C  0.62330943  0.73948359  0.38805191    -0.14600
C2365       C  0.62432957  0.01320698  0.37871269    -0.13000
C2366       C  0.62509006  0.98970603  0.38118804    -0.14600
C2367       C  0.75464643  0.98141845  0.38411520    -0.13000
C2368       C  0.77108851  0.99751536  0.38463691    -0.14600
C2369       C  0.62387310  0.87769744  0.27228280    -0.13000
C2370       C  0.62255605  0.87921026  0.24868636    -0.14600
C2371       C  0.75846259  0.62998387  0.38604028    -0.13000
C2372       C  0.73487920  0.62835305  0.38731864    -0.14600
C2373       C  0.76900263  0.75629106  0.39641244    -0.13000
C2374       C  0.75239967  0.77252333  0.39614879    -0.14600
C2375       C  0.86618029  0.75845078  0.48934380    -0.13000
C2376       C  0.86675175  0.77620814  0.50401909    -0.14600
C2377       C  0.86869684  0.62609948  0.52244356    -0.13000
C2378       C  0.87030933  0.62703776  0.49883152    -0.14600
C2379       C  0.98496268  0.62824260  0.37925787    -0.13000
C2380       C  0.00842192  0.62777276  0.37646836    -0.14600
C2381       C  0.97819194  0.75731141  0.38278882    -0.13000
C2382       C  0.99403637  0.77402126  0.38338651    -0.14600
C2383       C  0.87464734  0.62648004  0.24849169    -0.13000
C2384       C  0.87312324  0.62774974  0.27210710    -0.14600
C2385       C  0.87280237  0.98950041  0.13905385    -0.13000
C2386       C  0.87203794  0.01302447  0.13660518    -0.14600
C2387       C  0.00827534  0.87640944  0.13670590    -0.13000
C2388       C  0.98473275  0.87724788  0.13877732    -0.14600
C2389       C  0.86283081  0.98096552  0.26909813    -0.13000
C2390       C  0.86333382  0.99763029  0.28499397    -0.14600
C2391       C  0.97736912  0.86711314  0.26847065    -0.13000
C2392       C  0.99378365  0.86761560  0.28462936    -0.14600
C2393       C  0.88587663  0.77084320  0.26558930    -0.13000
C2394       C  0.88634135  0.75393999  0.28138339    -0.14600
C2395       C  0.87380845  0.73985445  0.13822441    -0.13000
C2396       C  0.87259615  0.76341631  0.14027436    -0.14600
C2397       C  0.75048068  0.89121808  0.28196558    -0.13000
C2398       C  0.76753288  0.89074062  0.26634518    -0.14600
C2399       C  0.75872808  0.87699036  0.14078990    -0.13000
C2400       C  0.73518936  0.87817008  0.13866555    -0.14600
C2401       C  0.75739484  0.62074650  0.88584495    -0.13000
C2402       C  0.73386769  0.62262579  0.88450662    -0.14600
C2403       C  0.86580105  0.62526434  0.74903294    -0.13000
C2404       C  0.86757572  0.62336263  0.77256826    -0.14600
C2405       C  0.98379261  0.62526982  0.88769453    -0.13000
C2406       C  0.00740623  0.62667165  0.88876577    -0.14600
C2407       C  0.86876151  0.62549255  0.02222586    -0.13000
C2408       C  0.86783580  0.62369592  0.99867880    -0.14600
C2409       C  0.87446409  0.26302904  0.12931584    -0.13000
C2410       C  0.87328990  0.23944525  0.13088139    -0.14600
C2411       C  0.73717506  0.37568072  0.13158932    -0.13000
C2412       C  0.76073572  0.37703245  0.12990564    -0.14600
C2413       C  0.87213228  0.48946445  0.13361842    -0.13000
C2414       C  0.87267797  0.51306427  0.13508482    -0.14600
C2415       C  0.88969753  0.48347202  0.00746389    -0.13000
C2416       C  0.88941331  0.49913117  0.99044996    -0.14600
C2417       C  0.98752054  0.37398788  0.13176152    -0.13000
C2418       C  0.01114107  0.37491236  0.13290050    -0.14600
C2419       C  0.11849172  0.37536190  0.77049881    -0.13000
C2420       C  0.12062512  0.37350665  0.74701450    -0.14600
C2421       C  0.12087931  0.24152628  0.88307696    -0.13000
C2422       C  0.11894851  0.26506323  0.88416860    -0.14600
C2423       C  0.12161659  0.51495202  0.88738736    -0.13000
C2424       C  0.12039528  0.49135920  0.88582018    -0.14600
C2425       C  0.99728064  0.48684143  0.89900476    -0.13000
C2426       C  0.98057194  0.50292730  0.89942152    -0.14600
C2427       C  0.12243560  0.37444427  0.99646515    -0.13000
C2428       C  0.12434330  0.37504087  0.02005727    -0.14600
C2429       C  0.98012676  0.39291117  0.00712617    -0.13000
C2430       C  0.99609361  0.39366470  0.99041584    -0.14600
C2431       C  0.62691374  0.37727438  0.77139501    -0.13000
C2432       C  0.62525803  0.37876365  0.74784695    -0.14600
C2433       C  0.75406679  0.47948698  0.87141059    -0.13000
C2434       C  0.77083844  0.49512306  0.87183707    -0.14600
C2435       C  0.62400944  0.51248967  0.88341779    -0.13000
C2436       C  0.62590239  0.48895234  0.88459616    -0.14600
C2437       C  0.62692773  0.37724923  0.99766925    -0.13000
C2438       C  0.62507994  0.37667049  0.02125446    -0.14600
C2439       C  0.75502830  0.36489117  0.98824995    -0.13000
C2440       C  0.77149375  0.36599941  0.00428400    -0.14600
C2441       C  0.62825345  0.26302279  0.88520829    -0.13000
C2442       C  0.62652669  0.23948827  0.88618905    -0.14600
C2443       C  0.00979716  0.13069230  0.88468397    -0.13000
C2444       C  0.98620156  0.13247292  0.88546538    -0.14600
C2445       C  0.87639971  0.13020082  0.99634958    -0.13000
C2446       C  0.87598057  0.12797139  0.01986089    -0.14600
C2447       C  0.85881170  0.25884286  0.98814032    -0.13000
C2448       C  0.86014631  0.27529037  0.00415994    -0.14600
C2449       C  0.97445565  0.26161133  0.87237646    -0.13000
C2450       C  0.99061779  0.27790279  0.87267417    -0.14600
C2451       C  0.74968945  0.27047365  0.90047613    -0.13000
C2452       C  0.76577075  0.25380703  0.90060038    -0.14600
C2453       C  0.75983939  0.13072558  0.88465677    -0.13000
C2454       C  0.73629464  0.12861450  0.88578319    -0.14600
C2455       C  0.87457604  0.13262104  0.77078901    -0.13000
C2456       C  0.87636450  0.13091932  0.74727594    -0.14600
C2457       C  0.86756565  0.49150835  0.63543167    -0.13000
C2458       C  0.86506605  0.51503390  0.63497899    -0.14600
C2459       C  0.76717980  0.39157832  0.76172224    -0.13000
C2460       C  0.75146849  0.39014272  0.77863774    -0.14600
C2461       C  0.75992588  0.38073357  0.63425018    -0.13000
C2462       C  0.73635472  0.38229147  0.63345005    -0.14600
C2463       C  0.86390793  0.49943521  0.77953142    -0.13000
C2464       C  0.86318315  0.48443364  0.76207400    -0.14600
C2465       C  0.98620264  0.37510379  0.63606345    -0.13000
C2466       C  0.00980357  0.37342636  0.63493905    -0.14600
C2467       C  0.97615741  0.36967788  0.76359998    -0.13000
C2468       C  0.99193145  0.37058220  0.78034023    -0.14600
C2469       C  0.88272912  0.27518909  0.76270657    -0.13000
C2470       C  0.88246185  0.25868965  0.77888860    -0.14600
C2471       C  0.87518645  0.26545448  0.63749889    -0.13000
C2472       C  0.87714090  0.24193372  0.63627150    -0.14600
C2473       C  0.61852633  0.73863574  0.88365358    -0.13000
C2474       C  0.61675753  0.76221410  0.88513487    -0.14600
C2475       C  0.61876188  0.87183919  0.77229645    -0.13000
C2476       C  0.62066284  0.86991930  0.74876378    -0.14600
C2477       C  0.61935697  0.98908909  0.88719994    -0.13000
C2478       C  0.62085335  0.01269791  0.88843576    -0.14600
C2479       C  0.61737773  0.87627032  0.99872745    -0.13000
C2480       C  0.61922410  0.87768175  0.02226862    -0.14600
C2481       C  0.37209282  0.76623642  0.12990636    -0.13000
C2482       C  0.37039043  0.74267077  0.13153367    -0.14600
C2483       C  0.25834185  0.87957838  0.12979473    -0.13000
C2484       C  0.23475791  0.87830890  0.13142354    -0.14600
C2485       C  0.48487044  0.88038350  0.13400608    -0.13000
C2486       C  0.50845203  0.88142776  0.13564851    -0.14600
C2487       C  0.47853877  0.89472672  0.00672749    -0.13000
C2488       C  0.49403430  0.89397248  0.98957654    -0.14600
C2489       C  0.37088300  0.99317854  0.13147744    -0.13000
C2490       C  0.37218171  0.01675697  0.13282023    -0.14600
C2491       C  0.25962952  0.12532078  0.88435407    -0.13000
C2492       C  0.23607859  0.12721154  0.88311304    -0.14600
C2493       C  0.36917389  0.12654599  0.74733907    -0.13000
C2494       C  0.37082021  0.12458692  0.77086079    -0.14600
C2495       C  0.50954140  0.12617172  0.88737260    -0.13000
C2496       C  0.48596989  0.12471789  0.88586294    -0.14600
C2497       C  0.48007056  0.00066907  0.89810617    -0.13000
C2498       C  0.49629446  0.98408930  0.89836620    -0.14600
C2499       C  0.37234229  0.12862147  0.02076548    -0.13000
C2500       C  0.37129352  0.12652390  0.99717223    -0.14600
C2501       C  0.38737500  0.98550474  0.00680830    -0.13000
C2502       C  0.38800029  0.00129943  0.98994310    -0.14600
C2503       C  0.37598015  0.62969087  0.74748215    -0.13000
C2504       C  0.37402686  0.63135939  0.77102221    -0.14600
C2505       C  0.49181398  0.77433178  0.87165261    -0.13000
C2506       C  0.47612477  0.75761874  0.87118598    -0.14600
C2507       C  0.48450685  0.62974057  0.88349717    -0.13000
C2508       C  0.50805292  0.62786646  0.88229985    -0.14600
C2509       C  0.37026234  0.63079654  0.02112997    -0.13000
C2510       C  0.37122545  0.63247689  0.99753843    -0.14600
C2511       C  0.36301013  0.76061040  0.98743572    -0.13000
C2512       C  0.36409183  0.77697525  0.00358932    -0.14600
C2513       C  0.25815660  0.63361293  0.88597991    -0.13000
C2514       C  0.23458619  0.63195085  0.88713890    -0.14600
C2515       C  0.12679583  0.99176568  0.88473190    -0.13000
C2516       C  0.12510128  0.01536017  0.88387108    -0.14600
C2517       C  0.12568217  0.88107747  0.99691747    -0.13000
C2518       C  0.12353246  0.88042452  0.02046297    -0.14600
C2519       C  0.27047860  0.86669272  0.00385425    -0.13000
C2520       C  0.25399911  0.86556363  0.98784603    -0.14600
C2521       C  0.27110364  0.99712855  0.87238134    -0.13000
C2522       C  0.25495049  0.98084517  0.87190204    -0.14600
C2523       C  0.25050123  0.77197566  0.89957499    -0.13000
C2524       C  0.26719384  0.75589944  0.89935941    -0.14600
C2525       C  0.12540550  0.76542066  0.88522349    -0.13000
C2526       C  0.12319506  0.74188126  0.88644156    -0.14600
C2527       C  0.12805096  0.88079403  0.77079160    -0.13000
C2528       C  0.12659284  0.88269562  0.74726121    -0.14600
C2529       C  0.37801763  0.76399378  0.63342389    -0.13000
C2530       C  0.37998680  0.74041682  0.63258368    -0.14600
C2531       C  0.48735799  0.87151193  0.63414266    -0.13000
C2532       C  0.51086804  0.86915693  0.63390038    -0.14600
C2533       C  0.38699953  0.77079498  0.76060647    -0.13000
C2534       C  0.38575517  0.75516407  0.77763227    -0.14600
C2535       C  0.48033125  0.86604673  0.76126155    -0.13000
C2536       C  0.49522936  0.86692726  0.77881592    -0.14600
C2537       C  0.37207677  0.99063681  0.63571570    -0.13000
C2538       C  0.37039752  0.01426530  0.63478434    -0.14600
C2539       C  0.36651066  0.97993858  0.76319341    -0.13000
C2540       C  0.36667918  0.99593132  0.77980473    -0.14600
C2541       C  0.27138097  0.88614617  0.76262218    -0.13000
C2542       C  0.25477603  0.88610663  0.77874426    -0.14600
C2543       C  0.26124107  0.88083433  0.63721478    -0.13000
C2544       C  0.23770189  0.88298295  0.63606056    -0.14600
loop_ 
_geom_bond_atom_site_label_1 
_geom_bond_atom_site_label_2 
_geom_bond_distance 
_geom_bond_site_symmetry_2 
_ccdc_geom_bond_type 
N1            N2   1.317       .  A
N1            N7   1.310       .  A
N1          Mn30   2.172       .  S
N2            C9   1.349       .  A
N3            N5   1.310       .  A
N3            N4   1.318       .  A
N3          Mn19   2.174       .  S
N4           C10   1.349       .  A
N5            N6   1.316       .  A
N5          Mn30   2.171       .  S
N6           C10   1.348       .  A
N7            N8   1.317       .  A
N7          Mn19   2.168       .  S
N8            C9   1.347       .  A
C9         C2541   1.417       .  S
C10        C2533   1.417       .  S
N11          N17   1.319       .  A
N11          N12   1.339       .  A
N11         Mn41   2.326       .  S
N12          C20   1.375       .  A
N13          N14   1.313       .  A
N13          N15   1.320       .  A
N13         Mn19   2.142       .  S
N14          C21   1.333       .  A
N15          N16   1.338       .  A
N15         Mn41   2.324       .  S
N16          C21   1.375       .  A
N17          N18   1.312       .  A
N17         Mn19   2.136       .  S
N18          C20   1.332       .  A
Mn19        Cl43   2.517       .  S
C20        C2529   1.460       .  S
C21        C2543   1.460       .  S
N22          N23   1.315       .  A
N22          N28   1.309       .  A
N22         Mn30   2.166       .  S
N23          C31   1.347       .  A
N24          N26   1.310       .  A
N24          N25   1.318       .  A
N24         Mn42   2.170       .  S
N25          C32   1.348       .  A
N26          N27   1.316       .  A
N26         Mn30   2.174       .  S
N27          C32   1.348       .  A
N28          N29   1.319       .  A
N28         Mn42   2.177       .  S
N29          C31   1.350       .  A
Mn30        Cl43   2.563       .  S
C31        C2535   1.417       .  S
C32        C2539   1.418       .  S
N33          N34   1.340       .  A
N33          N39   1.320       .  A
N33         Mn41   2.331       .  S
N34          C44   1.376       .  A
N35          N36   1.310       .  A
N35          N37   1.320       .  A
N35         Mn42   2.134       .  S
N36          C45   1.331       .  A
N37          N38   1.338       .  A
N37         Mn41   2.320       .  S
N38          C45   1.374       .  A
N39          N40   1.312       .  A
N39         Mn42   2.139       .  S
N40          C44   1.333       .  A
Mn41        Cl43   2.564       .  S
Mn42        Cl43   2.518       .  S
C44        C2537   1.462       .  S
C45        C2531   1.455       .  S
N46          N47   1.319       .  A
N46          N52   1.310       .  A
N46         Mn75   2.177       .  S
N47          C54   1.349       .  A
N48          N50   1.309       .  A
N48          N49   1.315       .  A
N48         Mn64   2.165       .  S
N49          C55   1.347       .  A
N50          N51   1.318       .  A
N50         Mn75   2.168       .  S
N51          C55   1.348       .  A
N52          N53   1.315       .  A
N52         Mn64   2.165       .  S
N53          C54   1.347       .  A
C54        C2542   1.417       .  S
C55        C2523   1.413       .  S
N56          N62   1.309       .  A
N56          N57   1.317       .  A
N56         Mn86   2.168       .  S
N57          C65   1.348       .  A
N58          N59   1.317       .  A
N58          N60   1.310       .  A
N58         Mn64   2.171       .  S
N59          C66   1.349       .  A
N60          N61   1.318       .  A
N60         Mn86   2.172       .  S
N61          C66   1.347       .  A
N62          N63   1.316       .  A
N62         Mn64   2.165       .  S
N63          C65   1.348       .  A
Mn64        Cl88   2.569       .  S
C65        C2520   1.415       .  S
C66        C2522   1.417       .  S
N67          N68   1.313       .  A
N67          N73   1.320       .  A
N67         Mn75   2.141       .  S
N68          C76   1.333       .  A
N69          N71   1.321       .  A
N69          N70   1.338       .  A
N69         Mn87   2.327       .  S
N70          C77   1.375       .  A
N71          N72   1.312       .  A
N71         Mn75   2.139       .  S
N72          C77   1.333       .  A
N73          N74   1.340       .  A
N73         Mn87   2.333       .  S
N74          C76   1.376       .  A
Mn75        Cl88   2.515       .  S
C76        C2525   1.464       .  S
C77        C2527   1.459       .  S
N78          N79   1.312       .  A
N78          N84   1.320       .  A
N78         Mn86   2.137       .  S
N79          C89   1.332       .  A
N80          N81   1.338       .  A
N80          N82   1.320       .  A
N80         Mn87   2.324       .  S
N81          C90   1.375       .  A
N82          N83   1.312       .  A
N82         Mn86   2.139       .  S
N83          C90   1.332       .  A
N84          N85   1.339       .  A
N84         Mn87   2.327       .  S
N85          C89   1.375       .  A
Mn86        Cl88   2.510       .  S
Mn87        Cl88   2.570       .  S
C89        C2515   1.459       .  S
C90        C2517   1.458       .  S
N91          N92   1.318       .  A
N91          N97   1.310       .  A
N91        Mn120   2.174       .  S
N92          C99   1.349       .  A
N93          N95   1.309       .  A
N93          N94   1.316       .  A
N93        Mn109   2.172       .  S
N94         C100   1.349       .  A
N95          N96   1.317       .  A
N95        Mn120   2.167       .  S
N96         C100   1.347       .  A
N97          N98   1.315       .  A
N97        Mn109   2.167       .  S
N98          C99   1.347       .  A
C99        C2506   1.416       .  S
C100       C2511   1.416       .  S
N101        N107   1.310       .  A
N101        N102   1.317       .  A
N101       Mn131   2.165       .  S
N102        C110   1.346       .  A
N103        N104   1.317       .  A
N103        N105   1.310       .  A
N103       Mn109   2.173       .  S
N104        C111   1.348       .  A
N105        N106   1.318       .  A
N105       Mn131   2.171       .  S
N106        C111   1.348       .  A
N107        N108   1.316       .  A
N107       Mn109   2.167       .  S
N108        C110   1.348       .  A
Mn109      Cl133   2.568       .  S
C110       C2524   1.413       .  S
C111       C2534   1.418       .  S
N112        N113   1.312       .  A
N112        N118   1.320       .  A
N112       Mn120   2.141       .  S
N113        C121   1.333       .  A
N114        N116   1.320       .  A
N114        N115   1.338       .  A
N114       Mn132   2.325       .  S
N115        C122   1.375       .  A
N116        N117   1.312       .  A
N116       Mn120   2.135       .  S
N117        C122   1.332       .  A
N118        N119   1.339       .  A
N118       Mn132   2.326       .  S
N119        C121   1.375       .  A
Mn120      Cl133   2.512       .  S
C121       C2510   1.460       .  S
C122       C2507   1.458       .  S
N123        N124   1.313       .  A
N123        N129   1.320       .  A
N123       Mn131   2.138       .  S
N124        C134   1.333       .  A
N125        N126   1.339       .  A
N125        N127   1.320       .  A
N125       Mn132   2.330       .  S
N126        C135   1.376       .  A
N127        N128   1.313       .  A
N127       Mn131   2.138       .  S
N128        C135   1.333       .  A
N129        N130   1.339       .  A
N129       Mn132   2.329       .  S
N130        C134   1.375       .  A
Mn131      Cl133   2.515       .  S
Mn132      Cl133   2.568       .  S
C134       C2504   1.461       .  S
C135       C2513   1.462       .  S
N136        N137   1.318       .  A
N136        N142   1.310       .  A
N136       Mn165   2.176       .  S
N137        C144   1.348       .  A
N138        N140   1.310       .  A
N138        N139   1.317       .  A
N138       Mn154   2.175       .  S
N139        C145   1.350       .  A
N140        N141   1.317       .  A
N140       Mn165   2.164       .  S
N141        C145   1.346       .  A
N142        N143   1.316       .  A
N142       Mn154   2.169       .  S
N143        C144   1.348       .  A
C144       C2521   1.417   1_545  S
C145       C2502   1.415       .  S
N146        N152   1.310       .  A
N146        N147   1.318       .  A
N146       Mn176   2.172       .  S
N147        C155   1.348       .  A
N148        N149   1.317       .  A
N148        N150   1.310       .  A
N148       Mn154   2.177       .  S
N149        C156   1.349       .  A
N150        N151   1.318       .  A
N150       Mn176   2.174       .  S
N151        C156   1.348       .  A
N152        N153   1.316       .  A
N152       Mn154   2.167       .  S
N153        C155   1.348       .  A
Mn154      Cl178   2.571       .  S
C155       C2497   1.415       .  S
C156       C2540   1.419   1_545  S
N157        N158   1.314       .  A
N157        N163   1.320       .  A
N157       Mn165   2.147       .  S
N158        C166   1.334       .  A
N159        N161   1.320       .  A
N159        N160   1.338       .  A
N159       Mn177   2.326       .  S
N160        C167   1.375       .  A
N161        N162   1.313       .  A
N161       Mn165   2.140       .  S
N162        C167   1.334       .  A
N163        N164   1.339       .  A
N163       Mn177   2.328       .  S
N164        C166   1.376       .  A
Mn165      Cl178   2.515       .  S
C166       C2500   1.466       .  S
C167       C2491   1.460       .  S
N168        N169   1.313       .  A
N168        N174   1.321       .  A
N168       Mn176   2.144       .  S
N169        C179   1.334       .  A
N170        N171   1.340       .  A
N170        N172   1.320       .  A
N170       Mn177   2.331       .  S
N171        C180   1.376       .  A
N172        N173   1.313       .  A
N172       Mn176   2.140       .  S
N173        C180   1.333       .  A
N174        N175   1.338       .  A
N174       Mn177   2.326       .  S
N175        C179   1.374       .  A
Mn176      Cl178   2.517       .  S
Mn177      Cl178   2.571       .  S
C179       C2494   1.460       .  S
C180       C2496   1.464       .  S
N181        N182   1.318       .  A
N181        N187   1.310       .  A
N181       Mn210   2.175       .  S
N182        C189   1.348       .  A
N183        N185   1.309       .  A
N183        N184   1.315       .  A
N183       Mn199   2.162       .  S
N184        C190   1.347       .  A
N185        N186   1.319       .  A
N185       Mn210   2.175       .  S
N186        C190   1.349       .  A
N187        N188   1.315       .  A
N187       Mn199   2.163       .  S
N188        C189   1.347       .  A
C189       C2512   1.416       .  S
C190       C2487   1.415       .  S
N191        N197   1.309       .  A
N191        N192   1.319       .  A
N191       Mn221   2.176       .  S
N192        C200   1.349       .  A
N193        N194   1.316       .  A
N193        N195   1.310       .  A
N193       Mn199   2.167       .  S
N194        C201   1.348       .  A
N195        N196   1.318       .  A
N195       Mn221   2.171       .  S
N196        C201   1.347       .  A
N197        N198   1.315       .  A
N197       Mn199   2.158       .  S
N198        C200   1.346       .  A
Mn199      Cl223   2.568       .  S
C200       C2501   1.415       .  S
C201       C2519   1.416       .  S
N202        N203   1.312       .  A
N202        N208   1.320       .  A
N202       Mn210   2.138       .  S
N203        C211   1.332       .  A
N204        N206   1.321       .  A
N204        N205   1.339       .  A
N204       Mn222   2.335       .  S
N205        C212   1.376       .  A
N206        N207   1.314       .  A
N206       Mn210   2.146       .  S
N207        C212   1.334       .  A
N208        N209   1.340       .  A
N208       Mn222   2.332       .  S
N209        C211   1.376       .  A
Mn210      Cl223   2.517       .  S
C211       C2485   1.463       .  S
C212       C2481   1.465       .  S
N213        N214   1.313       .  A
N213        N219   1.321       .  A
N213       Mn221   2.143       .  S
N214        C224   1.333       .  A
N215        N216   1.339       .  A
N215        N217   1.320       .  A
N215       Mn222   2.333       .  S
N216        C225   1.376       .  A
N217        N218   1.312       .  A
N217       Mn221   2.137       .  S
N218        C225   1.332       .  A
N219        N220   1.339       .  A
N219       Mn222   2.333       .  S
N220        C224   1.376       .  A
Mn221      Cl223   2.517       .  S
Mn222      Cl223   2.567       .  S
C224       C2483   1.464       .  S
C225       C2489   1.462       .  S
N226        N227   1.317       .  A
N226        N232   1.310       .  A
N226       Mn255   2.166       .  S
N227        C234   1.346       .  A
N228        N230   1.310       .  A
N228        N229   1.316       .  A
N228       Mn244   2.171       .  S
N229        C235   1.348       .  A
N230        N231   1.318       .  A
N230       Mn255   2.168       .  S
N231        C235   1.347       .  A
N232        N233   1.318       .  A
N232       Mn244   2.181       .  S
N233        C234   1.350       .  A
C234       C2536   1.419       .  S
C235       C2498   1.415       .  S
N236        N242   1.310       .  A
N236        N237   1.317       .  A
N236       Mn266   2.166       .  S
N237        C245   1.346       .  A
N238        N239   1.317       .  A
N238        N240   1.310       .  A
N238       Mn244   2.175       .  S
N239        C246   1.349       .  A
N240        N241   1.317       .  A
N240       Mn266   2.170       .  S
N241        C246   1.346       .  A
N242        N243   1.318       .  A
N242       Mn244   2.177       .  S
N243        C245   1.349       .  A
Mn244      Cl268   2.571       .  S
C245       C2488   1.417       .  S
C246       C2505   1.417       .  S
N247        N248   1.312       .  A
N247        N253   1.319       .  A
N247       Mn255   2.134       .  S
N248        C256   1.332       .  A
N249        N251   1.320       .  A
N249        N250   1.339       .  A
N249       Mn267   2.328       .  S
N250        C257   1.375       .  A
N251        N252   1.313       .  A
N251       Mn255   2.141       .  S
N252        C257   1.334       .  A
N253        N254   1.340       .  A
N253       Mn267   2.336       .  S
N254        C256   1.377       .  A
Mn255      Cl268   2.516       .  S
C256       C2477   1.465       .  S
C257       C2475   1.462       .  S
N258        N259   1.313       .  A
N258        N264   1.320       .  A
N258       Mn266   2.141       .  S
N259        C269   1.334       .  A
N260        N261   1.338       .  A
N260        N262   1.320       .  A
N260       Mn267   2.324       .  S
N261        C270   1.375       .  A
N262        N263   1.313       .  A
N262       Mn266   2.143       .  S
N263        C270   1.334       .  A
N264        N265   1.339       .  A
N264       Mn267   2.329       .  S
N265        C269   1.375       .  A
Mn266      Cl268   2.514       .  S
Mn267      Cl268   2.568       .  S
C269       C2474   1.463       .  S
C270       C2479   1.461       .  S
N271        N272   1.338       .  A
N271        N277   1.320       .  A
N271       Mn300   2.319       .  S
N272        C279   1.374       .  A
N273        N275   1.319       .  A
N273        N274   1.311       .  A
N273       Mn289   2.132       .  S
N274        C280   1.332       .  A
N275        N276   1.338       .  A
N275       Mn300   2.323       .  S
N276        C280   1.375       .  A
N277        N278   1.312       .  A
N277       Mn289   2.141       .  S
N278        C279   1.333       .  A
C279       C2471   1.457       .  S
C280       C2461   1.457       .  S
N281        N287   1.310       .  A
N281        N282   1.316       .  A
N281       Mn311   2.171       .  S
N282        C290   1.349       .  A
N283        N284   1.317       .  A
N283        N285   1.309       .  A
N283       Mn289   2.163       .  S
N284        C291   1.346       .  A
N285        N286   1.316       .  A
N285       Mn311   2.171       .  S
N286        C291   1.349       .  A
N287        N288   1.318       .  A
N287       Mn289   2.171       .  S
N288        C290   1.348       .  A
Mn289      Cl313   2.514       .  S
C290       C2459   1.417       .  S
C291       C2469   1.415       .  S
N292        N293   1.338       .  A
N292        N298   1.320       .  A
N292       Mn300   2.321       .  S
N293        C301   1.375       .  A
N294        N296   1.320       .  A
N294        N295   1.312       .  A
N294       Mn312   2.138       .  S
N295        C302   1.332       .  A
N296        N297   1.339       .  A
N296       Mn300   2.329       .  S
N297        C302   1.376       .  A
N298        N299   1.311       .  A
N298       Mn312   2.137       .  S
N299        C301   1.332       .  A
Mn300      Cl313   2.565       .  S
C301       C2457   1.457       .  S
C302       C2465   1.461       .  S
N303        N304   1.316       .  A
N303        N309   1.310       .  A
N303       Mn311   2.172       .  S
N304        C314   1.348       .  A
N305        N306   1.319       .  A
N305        N307   1.310       .  A
N305       Mn312   2.174       .  S
N306        C315   1.349       .  A
N307        N308   1.315       .  A
N307       Mn311   2.166       .  S
N308        C315   1.347       .  A
N309        N310   1.318       .  A
N309       Mn312   2.169       .  S
N310        C314   1.348       .  A
Mn311      Cl313   2.564       .  S
Mn312      Cl313   2.516       .  S
C314       C2467   1.416       .  S
C315       C2464   1.416       .  S
N316        N317   1.318       .  A
N316        N322   1.310       .  A
N316       Mn345   2.174       .  S
N317        C324   1.348       .  A
N318        N320   1.309       .  A
N318        N319   1.316       .  A
N318       Mn334   2.166       .  S
N319        C325   1.348       .  A
N320        N321   1.317       .  A
N320       Mn345   2.169       .  S
N321        C325   1.348       .  A
N322        N323   1.316       .  A
N322       Mn334   2.170       .  S
N323        C324   1.349       .  A
C324       C2449   1.418       .  S
C325       C2447   1.415       .  S
N326        N332   1.309       .  A
N326        N327   1.318       .  A
N326       Mn356   2.166       .  S
N327        C335   1.347       .  A
N328        N329   1.315       .  A
N328        N330   1.310       .  A
N328       Mn334   2.166       .  S
N329        C336   1.347       .  A
N330        N331   1.318       .  A
N330       Mn356   2.171       .  S
N331        C336   1.348       .  A
N332        N333   1.315       .  A
N332       Mn334   2.164       .  S
N333        C335   1.347       .  A
Mn334      Cl358   2.571       .  S
C335       C2452   1.412       .  S
C336       C2470   1.414       .  S
N337        N338   1.311       .  A
N337        N343   1.320       .  A
N337       Mn345   2.139       .  S
N338        C346   1.332       .  A
N339        N341   1.321       .  A
N339        N340   1.339       .  A
N339       Mn357   2.327       .  S
N340        C347   1.375       .  A
N341        N342   1.312       .  A
N341       Mn345   2.140       .  S
N342        C347   1.333       .  A
N343        N344   1.337       .  A
N343       Mn357   2.317       .  S
N344        C346   1.374       .  A
Mn345      Cl358   2.507       .  S
C346       C2445   1.455       .  S
C347       C2444   1.460       .  S
N348        N349   1.312       .  A
N348        N354   1.320       .  A
N348       Mn356   2.139       .  S
N349        C359   1.333       .  A
N350        N351   1.340       .  A
N350        N352   1.320       .  A
N350       Mn357   2.335       .  S
N351        C360   1.377       .  A
N352        N353   1.313       .  A
N352       Mn356   2.137       .  S
N353        C360   1.332       .  A
N354        N355   1.338       .  A
N354       Mn357   2.324       .  S
N355        C359   1.374       .  A
Mn356      Cl358   2.512       .  S
Mn357      Cl358   2.571       .  S
C359       C2455   1.458       .  S
C360       C2453   1.464       .  S
N361        N362   1.318       .  A
N361        N367   1.309       .  A
N361       Mn390   2.169       .  S
N362        C369   1.348       .  A
N363        N365   1.309       .  A
N363        N364   1.316       .  A
N363       Mn379   2.168       .  S
N364        C370   1.349       .  A
N365        N366   1.317       .  A
N365       Mn390   2.162       .  S
N366        C370   1.346       .  A
N367        N368   1.316       .  A
N367       Mn379   2.171       .  S
N368        C369   1.348       .  A
C369       C2460   1.417       .  S
C370       C2451   1.412       .  S
N371        N377   1.309       .  A
N371        N372   1.317       .  A
N371       Mn401   2.169       .  S
N372        C380   1.347       .  A
N373        N374   1.315       .  A
N373        N375   1.310       .  A
N373       Mn379   2.166       .  S
N374        C381   1.347       .  A
N375        N376   1.319       .  A
N375       Mn401   2.175       .  S
N376        C381   1.349       .  A
N377        N378   1.316       .  A
N377       Mn379   2.170       .  S
N378        C380   1.349       .  A
Mn379      Cl403   2.570       .  S
C380       C2439   1.416       .  S
C381       C2433   1.416       .  S
N382        N383   1.312       .  A
N382        N388   1.320       .  A
N382       Mn390   2.135       .  S
N383        C391   1.332       .  A
N384        N386   1.320       .  A
N384        N385   1.339       .  A
N384       Mn402   2.328       .  S
N385        C392   1.375       .  A
N386        N387   1.312       .  A
N386       Mn390   2.135       .  S
N387        C392   1.332       .  A
N388        N389   1.338       .  A
N388       Mn402   2.325       .  S
N389        C391   1.375       .  A
Mn390      Cl403   2.512       .  S
C391       C2441   1.458       .  S
C392       C2431   1.459       .  S
N393        N394   1.312       .  A
N393        N399   1.320       .  A
N393       Mn401   2.138       .  S
N394        C404   1.332       .  A
N395        N396   1.339       .  A
N395        N397   1.320       .  A
N395       Mn402   2.326       .  S
N396        C405   1.375       .  A
N397        N398   1.312       .  A
N397       Mn401   2.140       .  S
N398        C405   1.332       .  A
N399        N400   1.338       .  A
N399       Mn402   2.321       .  S
N400        C404   1.374       .  A
Mn401      Cl403   2.509       .  S
Mn402      Cl403   2.570       .  S
C404       C2436   1.457       .  S
C405       C2437   1.459       .  S
N406        N407   1.318       .  A
N406        N412   1.310       .  A
N406       Mn435   2.170       .  S
N407        C414   1.347       .  A
N408        N410   1.310       .  A
N408        N409   1.315   1_455  A
N408       Mn424   2.166       .  S
N409        C415   1.347   1_655  A
N410        N411   1.318       .  A
N410       Mn435   2.174       .  S
N411        C415   1.348       .  A
N412        N413   1.316   1_455  A
N412       Mn424   2.173       .  S
N413        C414   1.348   1_655  A
C414       C2468   1.417   1_455  S
C415       C2425   1.415   1_455  S
N416        N422   1.309       .  A
N416        N417   1.317       .  A
N416       Mn446   2.167       .  S
N417        C425   1.347       .  A
N418        N419   1.316   1_455  A
N418        N420   1.310       .  A
N418       Mn424   2.171       .  S
N419        C426   1.348   1_655  A
N420        N421   1.318       .  A
N420       Mn446   2.174       .  S
N421        C426   1.348       .  A
N422        N423   1.317   1_455  A
N422       Mn424   2.174       .  S
N423        C425   1.350   1_655  A
Mn424      Cl448   2.571       .  S
C425       C2430   1.417   1_455  S
C426       C2450   1.418   1_455  S
N427        N428   1.312       .  A
N427        N433   1.320       .  A
N427       Mn435   2.137       .  S
N428        C436   1.332       .  A
N429        N431   1.321       .  A
N429        N430   1.338       .  A
N429       Mn447   2.324       .  S
N430        C437   1.374       .  A
N431        N432   1.313       .  A
N431       Mn435   2.145       .  S
N432        C437   1.334       .  A
N433        N434   1.340       .  A
N433       Mn447   2.333       .  S
N434        C436   1.377       .  A
Mn435      Cl448   2.516       .  S
C436       C2424   1.463       .  S
C437       C2419   1.460       .  S
N438        N439   1.312       .  A
N438        N444   1.320       .  A
N438       Mn446   2.140       .  S
N439        C449   1.334       .  A
N440        N441   1.339       .  A
N440        N442   1.320       .  A
N440       Mn447   2.325       .  S
N441        C450   1.376       .  A
N442        N443   1.312       .  A
N442       Mn446   2.142       .  S
N443        C450   1.333       .  A
N444        N445   1.338       .  A
N444       Mn447   2.321       .  S
N445        C449   1.374       .  A
Mn446      Cl448   2.511       .  S
Mn447      Cl448   2.571       .  S
C449       C2422   1.458       .  S
C450       C2427   1.462       .  S
N451        N452   1.318       .  A
N451        N457   1.309       .  A
N451       Mn480   2.170       .  S
N452        C459   1.347       .  A
N453        N455   1.309       .  A
N453        N454   1.315       .  A
N453       Mn469   2.162       .  S
N454        C460   1.347       .  A
N455        N456   1.319       .  A
N455       Mn480   2.176       .  S
N456        C460   1.349       .  A
N457        N458   1.316       .  A
N457       Mn469   2.164       .  S
N458        C459   1.347       .  A
C459       C2448   1.415       .  S
C460       C2429   1.416       .  S
N461        N467   1.309       .  A
N461        N462   1.319       .  A
N461       Mn491   2.175       .  S
N462        C470   1.349       .  A
N463        N464   1.316       .  A
N463        N465   1.309       .  A
N463       Mn469   2.165       .  S
N464        C471   1.347       .  A
N465        N466   1.318       .  A
N465       Mn491   2.172       .  S
N466        C471   1.348       .  A
N467        N468   1.315       .  A
N467       Mn469   2.161       .  S
N468        C470   1.347       .  A
Mn469      Cl493   2.572       .  S
C470       C2415   1.415       .  S
C471       C2440   1.416       .  S
N472        N473   1.312       .  A
N472        N478   1.320       .  A
N472       Mn480   2.135       .  S
N473        C481   1.331       .  A
N474        N476   1.321       .  A
N474        N475   1.339       .  A
N474       Mn492   2.330       .  S
N475        C482   1.375       .  A
N476        N477   1.313       .  A
N476       Mn480   2.143       .  S
N477        C482   1.333       .  A
N478        N479   1.340       .  A
N478       Mn492   2.336       .  S
N479        C481   1.377       .  A
Mn480      Cl493   2.512       .  S
C481       C2417   1.463       .  S
C482       C2409   1.462       .  S
N483        N484   1.313       .  A
N483        N489   1.321       .  A
N483       Mn491   2.143       .  S
N484        C494   1.333       .  A
N485        N486   1.340       .  A
N485        N487   1.320       .  A
N485       Mn492   2.332       .  S
N486        C495   1.376       .  A
N487        N488   1.311       .  A
N487       Mn491   2.134       .  S
N488        C495   1.331       .  A
N489        N490   1.339       .  A
N489       Mn492   2.332       .  S
N490        C494   1.375       .  A
Mn491      Cl493   2.512       .  S
Mn492      Cl493   2.570       .  S
C494       C2412   1.463       .  S
C495       C2413   1.460       .  S
N496        N497   1.317       .  A
N496        N502   1.310       .  A
N496       Mn525   2.169       .  S
N497        C504   1.346       .  A
N498        N500   1.310       .  A
N498        N499   1.318       .  A
N498       Mn514   2.177       .  S
N499        C505   1.350       .  A
N500        N501   1.317       .  A
N500       Mn525   2.166       .  S
N501        C505   1.346       .  A
N502        N503   1.318       .  A
N502       Mn514   2.177       .  S
N503        C504   1.350       .  A
C504       C2434   1.417       .  S
C505       C2416   1.417       .  S
N506        N512   1.310       .  A
N506        N507   1.317       .  A
N506       Mn536   2.166       .  S
N507        C515   1.346       .  A
N508        N509   1.318       .  A
N508        N510   1.310       .  A
N508       Mn514   2.180       .  S
N509        C516   1.350       .  A
N510        N511   1.317       .  A
N510       Mn536   2.163       .  S
N511        C516   1.345       .  A
N512        N513   1.316       .  A
N512       Mn514   2.173       .  S
N513        C515   1.349       .  A
Mn514      Cl538   2.573       .  S
C515       C2426   1.415       .  S
C516       C2463   1.417       .  S
N517        N518   1.312       .  A
N517        N523   1.320       .  A
N517       Mn525   2.141       .  S
N518        C526   1.333       .  A
N519        N521   1.320       .  A
N519        N520   1.337       .  A
N519       Mn537   2.323       .  S
N520        C527   1.374       .  A
N521        N522   1.313       .  A
N521       Mn525   2.141       .  S
N522        C527   1.334       .  A
N523        N524   1.338       .  A
N523       Mn537   2.322       .  S
N524        C526   1.375       .  A
Mn525      Cl538   2.509       .  S
C526       C2408   1.459       .  S
C527       C2401   1.459       .  S
N528        N529   1.313       .  A
N528        N534   1.320       .  A
N528       Mn536   2.140       .  S
N529        C539   1.333       .  A
N530        N531   1.341       .  A
N530        N532   1.319       .  A
N530       Mn537   2.336       .  S
N531        C540   1.378       .  A
N532        N533   1.312       .  A
N532       Mn536   2.131       .  S
N533        C540   1.331       .  A
N534        N535   1.339       .  A
N534       Mn537   2.327       .  S
N535        C539   1.375       .  A
Mn536      Cl538   2.513       .  S
Mn537      Cl538   2.571       .  S
C539       C2404   1.461       .  S
C540       C2405   1.464       .  S
N541        N542   1.317       .  A
N541        N547   1.310       .  A
N541       Mn570   2.173       .  S
N542        C549   1.349       .  A
N543        N545   1.310       .  A
N543        N544   1.317       .  A
N543       Mn559   2.168       .  S
N544        C550   1.347       .  A
N545        N546   1.317       .  A
N545       Mn570   2.175       .  S
N546        C550   1.349       .  A
N547        N548   1.317       .  A
N547       Mn559   2.168       .  S
N548        C549   1.347       .  A
C549       C2398   1.416       .  S
C550       C2393   1.417       .  S
N551        N557   1.320       .  A
N551        N552   1.339       .  A
N551       Mn581   2.329       .  S
N552        C560   1.376       .  A
N553        N554   1.313       .  A
N553        N555   1.320       .  A
N553       Mn559   2.140       .  S
N554        C561   1.333       .  A
N555        N556   1.339       .  A
N555       Mn581   2.329       .  S
N556        C561   1.375       .  A
N557        N558   1.313       .  A
N557       Mn559   2.140       .  S
N558        C560   1.333       .  A
Mn559      Cl583   2.513       .  S
C560       C2396   1.462       .  S
C561       C2399   1.462       .  S
N562        N563   1.316       .  A
N562        N568   1.310       .  A
N562       Mn570   2.172       .  S
N563        C571   1.349       .  A
N564        N566   1.310       .  A
N564        N565   1.317       .  A
N564       Mn582   2.169       .  S
N565        C572   1.347       .  A
N566        N567   1.316       .  A
N566       Mn570   2.174       .  S
N567        C572   1.349       .  A
N568        N569   1.318       .  A
N568       Mn582   2.173       .  S
N569        C571   1.348       .  A
Mn570      Cl583   2.573       .  S
C571       C2391   1.418       .  S
C572       C2389   1.417       .  S
N573        N574   1.338       .  A
N573        N579   1.321       .  A
N573       Mn581   2.325       .  S
N574        C584   1.375       .  A
N575        N576   1.312       .  A
N575        N577   1.320       .  A
N575       Mn582   2.138       .  S
N576        C585   1.332       .  A
N577        N578   1.338       .  A
N577       Mn581   2.325       .  S
N578        C585   1.375       .  A
N579        N580   1.313       .  A
N579       Mn582   2.142       .  S
N580        C584   1.333       .  A
Mn581      Cl583   2.574       .  S
Mn582      Cl583   2.511       .  S
C584       C2385   1.460       .  S
C585       C2388   1.458       .  S
N586        N587   1.320       .  A
N586        N592   1.310       .  A
N586       Mn615   2.181       .  S
N587        C594   1.350       .  A
N588        N590   1.310       .  A
N588        N589   1.314       .  A
N588       Mn604   2.165       .  S
N589        C595   1.346       .  A
N590        N591   1.320       .  A
N590       Mn615   2.180       .  S
N591        C595   1.351       .  A
N592        N593   1.317       .  A
N592       Mn604   2.177       .  S
N593        C594   1.349       .  A
C594       C2381   1.425       .  S
C595       C2375   1.417       .  S
N596        N602   1.309       .  A
N596        N597   1.317       .  A
N596       Mn626   2.161       .  S
N597        C605   1.346       .  A
N598        N599   1.316       .  A
N598        N600   1.310       .  A
N598       Mn604   2.168       .  S
N599        C606   1.348       .  A
N600        N601   1.318       .  A
N600       Mn626   2.172       .  S
N601        C606   1.348       .  A
N602        N603   1.317       .  A
N602       Mn604   2.176       .  S
N603        C605   1.349       .  A
Mn604      Cl628   2.561       .  S
C605       C2373   1.416       .  S
C606       C2394   1.416       .  S
N607        N608   1.312       .  A
N607        N613   1.321       .  A
N607       Mn615   2.139       .  S
N608        C616   1.332       .  A
N609        N611   1.321       .  A
N609        N610   1.338       .  A
N609       Mn627   2.325       .  S
N610        C617   1.375       .  A
N611        N612   1.311       .  A
N611       Mn615   2.140       .  S
N612        C617   1.332       .  A
N613        N614   1.339       .  A
N613       Mn627   2.332       .  S
N614        C616   1.376       .  A
Mn615      Cl628   2.522       .  S
C616       C2378   1.460       .  S
C617       C2379   1.456       .  S
N618        N619   1.313       .  A
N618        N624   1.319       .  A
N618       Mn626   2.136       .  S
N619        C629   1.333       .  A
N620        N621   1.339       .  A
N620        N622   1.320       .  A
N620       Mn627   2.332       .  S
N621        C630   1.376       .  A
N622        N623   1.314       .  A
N622       Mn626   2.144       .  S
N623        C630   1.334       .  A
N624        N625   1.339       .  A
N624       Mn627   2.328       .  S
N625        C629   1.376       .  A
Mn626      Cl628   2.521       .  S
Mn627      Cl628   2.565       .  S
C629       C2384   1.463       .  S
C630       C2371   1.465       .  S
N631        N632   1.318       .  A
N631        N637   1.310       .  A
N631       Mn660   2.177       .  S
N632        C639   1.349       .  A
N633        N635   1.310       .  A
N633        N634   1.316       .  A
N633       Mn649   2.170       .  S
N634        C640   1.347       .  A
N635        N636   1.318       .  A
N635       Mn660   2.166       .  S
N636        C640   1.348       .  A
N637        N638   1.315       .  A
N637       Mn649   2.165       .  S
N638        C639   1.347       .  A
C639       C2397   1.415       .  S
C640       C2374   1.416       .  S
N641        N647   1.310       .  A
N641        N642   1.319       .  A
N641       Mn671   2.178       .  S
N642        C650   1.350       .  A
N643        N644   1.317       .  A
N643        N645   1.310       .  A
N643       Mn649   2.174       .  S
N644        C651   1.349       .  A
N645        N646   1.319       .  A
N645       Mn671   2.175       .  S
N646        C651   1.349       .  A
N647        N648   1.314       .  A
N647       Mn649   2.164       .  S
N648        C650   1.346       .  A
Mn649      Cl673   2.563       .  S
C650       C2360   1.416       .  S
C651       C2367   1.423       .  S
N652        N653   1.314       .  A
N652        N658   1.321       .  A
N652       Mn660   2.150       .  S
N653        C661   1.335       .  A
N654        N656   1.319       .  A
N654        N655   1.339       .  A
N654       Mn672   2.326       .  S
N655        C662   1.376       .  A
N656        N657   1.312       .  A
N656       Mn660   2.136       .  S
N657        C662   1.333       .  A
N658        N659   1.339       .  A
N658       Mn672   2.333       .  S
N659        C661   1.376       .  A
Mn660      Cl673   2.521       .  S
C661       C2363   1.466       .  S
C662       C2369   1.461       .  S
N663        N664   1.312       .  A
N663        N669   1.321       .  A
N663       Mn671   2.142       .  S
N664        C674   1.332       .  A
N665        N666   1.339       .  A
N665        N667   1.320       .  A
N665       Mn672   2.329       .  S
N666        C675   1.376       .  A
N667        N668   1.311       .  A
N667       Mn671   2.135       .  S
N668        C675   1.331       .  A
N669        N670   1.338       .  A
N669       Mn672   2.326       .  S
N670        C674   1.375       .  A
Mn671      Cl673   2.519       .  S
Mn672      Cl673   2.567       .  S
C674       C2366   1.457       .  S
C675       C2362   1.459       .  S
N676        N677   1.318       .  A
N676        N682   1.311       .  A
N676       Mn705   2.174       .  S
N677        C684   1.347       .  A
N678        N680   1.310       .  A
N678        N679   1.317       .  A
N678       Mn694   2.176       .  S
N679        C685   1.349       .  A
N680        N681   1.318       .  A
N680       Mn705   2.171       .  S
N681        C685   1.348       .  A
N682        N683   1.316   1_455  A
N682       Mn694   2.172       .  S
N683        C684   1.348   1_655  A
C684       C2392   1.417   1_455  S
C685       C2353   1.418   1_455  S
N686        N692   1.310       .  A
N686        N687   1.320       .  A
N686       Mn716   2.179       .  S
N687        C695   1.350       .  A
N688        N689   1.318   1_455  A
N688        N690   1.310       .  A
N688       Mn694   2.181       .  S
N689        C696   1.350   1_655  A
N690        N691   1.320       .  A
N690       Mn716   2.177       .  S
N691        C696   1.349       .  A
N692        N693   1.315       .  A
N692       Mn694   2.168       .  S
N693        C695   1.347       .  A
Mn694      Cl718   2.567       .  S
C695       C2358   1.418   1_455  S
C696       C2382   1.425   1_455  S
N697        N698   1.314       .  A
N697        N703   1.320       .  A
N697       Mn705   2.148       .  S
N698        C706   1.334       .  A
N699        N701   1.320       .  A
N699        N700   1.339       .  A
N699       Mn717   2.327       .  S
N700        C707   1.375       .  A
N701        N702   1.314       .  A
N701       Mn705   2.147       .  S
N702        C707   1.335       .  A
N703        N704   1.340       .  A
N703       Mn717   2.336       .  S
N704        C706   1.377       .  A
Mn705      Cl718   2.521       .  S
C706       C2352   1.468       .  S
C707       C2347   1.465       .  S
N708        N709   1.313       .  A
N708        N714   1.321       .  A
N708       Mn716   2.143       .  S
N709        C719   1.333       .  A
N710        N711   1.340       .  A
N710        N712   1.320       .  A
N710       Mn717   2.333       .  S
N711        C720   1.377       .  A
N712        N713   1.311       .  A
N712       Mn716   2.135       .  S
N713        C720   1.331       .  A
N714        N715   1.339       .  A
N714       Mn717   2.335       .  S
N715        C719   1.376       .  A
Mn716      Cl718   2.523       .  S
Mn717      Cl718   2.568       .  S
C719       C2349   1.464       .  S
C720       C2355   1.461       .  S
N721        N722   1.319       .  A
N721        N727   1.310       .  A
N721       Mn750   2.178       .  S
N722        C729   1.349       .  A
N723        N725   1.310       .  A
N723        N724   1.315       .  A
N723       Mn739   2.167       .  S
N724        C730   1.347       .  A
N725        N726   1.319       .  A
N725       Mn750   2.178       .  S
N726        C730   1.350       .  A
N727        N728   1.317       .  A
N727       Mn739   2.175       .  S
N728        C729   1.349       .  A
C729       C2368   1.423   1_545  S
C730       C2346   1.418       .  S
N731        N737   1.310       .  A
N731        N732   1.319       .  A
N731       Mn761   2.176       .  S
N732        C740   1.349       .  A
N733        N734   1.316       .  A
N733        N735   1.311       .  A
N733       Mn739   2.170       .  S
N734        C741   1.348       .  A
N735        N736   1.318       .  A
N735       Mn761   2.176       .  S
N736        C741   1.348       .  A
N737        N738   1.316       .  A
N737       Mn739   2.168       .  S
N738        C740   1.347       .  A
Mn739      Cl763   2.565       .  S
C740       C2354   1.418       .  S
C741       C2390   1.417   1_545  S
N742        N743   1.312       .  A
N742        N748   1.320       .  A
N742       Mn750   2.136       .  S
N743        C751   1.331       .  A
N744        N746   1.321       .  A
N744        N745   1.340       .  A
N744       Mn762   2.338       .  S
N745        C752   1.376       .  A
N746        N747   1.313       .  A
N746       Mn750   2.144       .  S
N747        C752   1.333       .  A
N748        N749   1.341       .  A
N748       Mn762   2.337       .  S
N749        C751   1.377       .  A
Mn750      Cl763   2.525       .  S
C751       C2343   1.464       .  S
C752       C2340   1.465       .  S
N753        N754   1.315       .  A
N753        N759   1.320       .  A
N753       Mn761   2.150       .  S
N754        C764   1.336       .  A
N755        N756   1.340       .  A
N755        N757   1.321       .  A
N755       Mn762   2.337       .  S
N756        C765   1.377       .  A
N757        N758   1.314       .  A
N757       Mn761   2.150       .  S
N758        C765   1.335       .  A
N759        N760   1.340       .  A
N759       Mn762   2.333       .  S
N760        C764   1.376       .  A
Mn761      Cl763   2.523       .  S
Mn762      Cl763   2.566       .  S
C764       C2337   1.469       .  S
C765       C2342   1.469       .  S
N766        N767   1.316       .  A
N766        N772   1.311       .  A
N766       Mn795   2.159       .  S
N767        C774   1.344       .  A
N768        N770   1.310       .  A
N768        N769   1.318       .  A
N768       Mn784   2.183       .  S
N769        C775   1.351       .  A
N770        N771   1.317       .  A
N770       Mn795   2.166       .  S
N771        C775   1.346       .  A
N772        N773   1.319       .  A
N772       Mn784   2.187       .  S
N773        C774   1.351       .  A
C774       C2376   1.418       .  S
C775       C2357   1.418       .  S
N776        N782   1.310       .  A
N776        N777   1.317       .  A
N776       Mn806   2.167       .  S
N777        C785   1.346       .  A
N778        N779   1.318       .  A
N778        N780   1.311       .  A
N778       Mn784   2.184       .  S
N779        C786   1.351       .  A
N780        N781   1.316       .  A
N780       Mn806   2.162       .  S
N781        C786   1.345       .  A
N782        N783   1.318       .  A
N782       Mn784   2.183       .  S
N783        C785   1.350       .  A
Mn784      Cl808   2.572       .  S
C785       C2345   1.419       .  S
C786       C2359   1.418       .  S
N787        N788   1.312       .  A
N787        N793   1.319       .  A
N787       Mn795   2.132       .  S
N788        C796   1.332       .  A
N789        N791   1.320       .  A
N789        N790   1.340       .  A
N789       Mn807   2.337       .  S
N790        C797   1.377       .  A
N791        N792   1.314       .  A
N791       Mn795   2.143       .  S
N792        C797   1.334       .  A
N793        N794   1.341       .  A
N793       Mn807   2.337       .  S
N794        C796   1.378       .  A
Mn795      Cl808   2.515       .  S
C796       C2334   1.465       .  S
C797       C2330   1.467       .  S
N798        N799   1.314       .  A
N798        N804   1.320       .  A
N798       Mn806   2.143       .  S
N799        C809   1.334       .  A
N800        N801   1.340       .  A
N800        N802   1.319       .  A
N800       Mn807   2.334       .  S
N801        C810   1.377       .  A
N802        N803   1.312       .  A
N802       Mn806   2.135       .  S
N803        C810   1.332       .  A
N804        N805   1.339       .  A
N804       Mn807   2.334       .  S
N805        C809   1.376       .  A
Mn806      Cl808   2.515       .  S
Mn807      Cl808   2.569       .  S
C809       C2331   1.465       .  S
C810       C2335   1.464       .  S
N811        N812   1.316       .  A
N811        N817   1.310       .  A
N811       Mn840   2.170       .  S
N812        C819   1.347       .  A
N813        N815   1.310       .  A
N813        N814   1.319       .  A
N813       Mn829   2.178       .  S
N814        C820   1.349       .  A
N815        N816   1.315       .  A
N815       Mn840   2.167       .  S
N816        C820   1.347       .  A
N817        N818   1.319       .  A
N817       Mn829   2.174       .  S
N818        C819   1.348       .  A
C819       C2328   1.417       .  S
C820       C2323   1.418       .  S
N821        N827   1.320       .  A
N821        N822   1.339       .  A
N821       Mn851   2.326       .  S
N822        C830   1.375       .  A
N823        N824   1.314       .  A
N823        N825   1.321       .  A
N823       Mn829   2.146       .  S
N824        C831   1.334       .  A
N825        N826   1.340       .  A
N825       Mn851   2.337       .  S
N826        C831   1.377       .  A
N827        N828   1.313       .  A
N827       Mn829   2.142       .  S
N828        C830   1.334       .  A
Mn829      Cl853   2.524       .  S
C830       C2320   1.461       .  S
C831       C2351   1.468       .  S
N832        N833   1.315       .  A
N832        N838   1.310       .  A
N832       Mn840   2.167       .  S
N833        C841   1.347       .  A
N834        N836   1.310       .  A
N834        N835   1.318       .  A
N834       Mn852   2.173       .  S
N835        C842   1.348       .  A
N836        N837   1.315       .  A
N836       Mn840   2.169       .  S
N837        C842   1.347       .  A
N838        N839   1.319       .  A
N838       Mn852   2.180       .  S
N839        C841   1.349       .  A
Mn840      Cl853   2.565       .  S
C841       C2321   1.418       .  S
C842       C2326   1.417       .  S
N843        N844   1.340       .  A
N843        N849   1.321       .  A
N843       Mn851   2.337       .  S
N844        C854   1.376       .  A
N845        N846   1.312       .  A
N845        N847   1.320       .  A
N845       Mn852   2.140       .  S
N846        C855   1.333       .  A
N847        N848   1.338       .  A
N847       Mn851   2.325       .  S
N848        C855   1.375       .  A
N849        N850   1.314       .  A
N849       Mn852   2.151       .  S
N850        C854   1.335       .  A
Mn851      Cl853   2.565       .  S
Mn852      Cl853   2.523       .  S
C854       C2341   1.469       .  S
C855       C2317   1.460       .  S
N856        N857   1.316       .  A
N856        N862   1.310       .  A
N856       Mn885   2.174       .  S
N857        C864   1.349       .  A
N858        N860   1.310       .  A
N858        N859   1.318       .  A
N858       Mn874   2.169       .  S
N859        C865   1.347       .  A
N860        N861   1.317       .  A
N860       Mn885   2.176       .  S
N861        C865   1.350       .  A
N862        N863   1.317       .  A
N862       Mn874   2.166       .  S
N863        C864   1.347       .  A
C864       C2315   1.415       .  S
C865       C2314   1.418       .  S
N866        N872   1.321       .  A
N866        N867   1.338       .  A
N866       Mn896   2.326       .  S
N867        C875   1.375       .  A
N868        N869   1.312       .  A
N868        N870   1.320       .  A
N868       Mn874   2.137       .  S
N869        C876   1.332       .  A
N870        N871   1.338       .  A
N870       Mn896   2.322       .  S
N871        C876   1.374       .  A
N872        N873   1.312       .  A
N872       Mn874   2.136       .  S
N873        C875   1.332       .  A
Mn874      Cl898   2.510       .  S
C875       C2307   1.457       .  S
C876       C2365   1.458       .  S
N877        N878   1.317       .  A
N877        N883   1.310       .  A
N877       Mn885   2.176       .  S
N878        C886   1.350       .  A
N879        N881   1.310       .  A
N879        N880   1.317       .  A
N879       Mn897   2.168       .  S
N880        C887   1.347       .  A
N881        N882   1.317       .  A
N881       Mn885   2.174       .  S
N882        C887   1.349       .  A
N883        N884   1.316       .  A
N883       Mn897   2.166       .  S
N884        C886   1.346       .  A
Mn885      Cl898   2.574       .  S
C886       C2309   1.416       .  S
C887       C2311   1.416       .  S
N888        N889   1.339       .  A
N888        N894   1.320       .  A
N888       Mn896   2.331       .  S
N889        C899   1.376       .  A
N890        N891   1.314       .  A
N890        N892   1.320       .  A
N890       Mn897   2.146       .  S
N891        C900   1.335       .  A
N892        N893   1.339       .  A
N892       Mn896   2.327       .  S
N893        C900   1.375       .  A
N894        N895   1.314       .  A
N894       Mn897   2.144       .  S
N895        C899   1.334       .  A
Mn896      Cl898   2.573       .  S
Mn897      Cl898   2.510       .  S
C899       C2339   1.466       .  S
C900       C2305   1.465       .  S
N901        N902   1.339       .  A
N901        N907   1.320       .  A
N901       Mn930   2.325       .  S
N902        C909   1.375       .  A
N903        N905   1.321       .  A
N903        N904   1.312       .  A
N903       Mn919   2.141       .  S
N904        C910   1.332       .  A
N905        N906   1.338       .  A
N905       Mn930   2.328       .  S
N906        C910   1.375       .  A
N907        N908   1.311       .  A
N907       Mn919   2.135       .  S
N908        C909   1.331       .  A
C909       C2518   1.457       .  S
C910       C2387   1.458       .  S
N911        N917   1.310       .  A
N911        N912   1.317       .  A
N911       Mn941   2.177       .  S
N912        C920   1.349       .  A
N913        N914   1.320       .  A
N913        N915   1.310       .  A
N913       Mn919   2.182       .  S
N914        C921   1.351       .  A
N915        N916   1.314       .  A
N915       Mn941   2.165       .  S
N916        C921   1.347       .  A
N917        N918   1.319       .  A
N917       Mn919   2.177       .  S
N918        C920   1.349       .  A
Mn919      Cl943   2.521       .  S
C920       C2304   1.424       .  S
C921       C2299   1.418       .  S
N922        N923   1.339       .  A
N922        N928   1.320       .  A
N922       Mn930   2.329       .  S
N923        C931   1.375       .  A
N924        N926   1.320       .  A
N924        N925   1.313       .  A
N924       Mn942   2.142       .  S
N925        C932   1.333       .  A
N926        N927   1.339       .  A
N926       Mn930   2.330       .  S
N927        C932   1.376       .  A
N928        N929   1.314       .  A
N928       Mn942   2.147       .  S
N929        C931   1.335       .  A
Mn930      Cl943   2.567       .  S
C931       C2348   1.466       .  S
C932       C2484   1.463       .  S
N933        N934   1.316       .  A
N933        N939   1.310       .  A
N933       Mn941   2.172       .  S
N934        C944   1.348       .  A
N935        N936   1.318       .  A
N935        N937   1.311       .  A
N935       Mn942   2.172       .  S
N936        C945   1.348       .  A
N937        N938   1.314       .  A
N937       Mn941   2.165       .  S
N938        C945   1.346       .  A
N939        N940   1.318       .  A
N939       Mn942   2.173       .  S
N940        C944   1.348       .  A
Mn941      Cl943   2.563       .  S
Mn942      Cl943   2.521       .  S
C944       C2302   1.418       .  S
C945       C2297   1.413       .  S
N946        N947   1.338       .  A
N946        N952   1.320       .  A
N946       Mn975   2.322       .  S
N947        C954   1.374       .  A
N948        N950   1.321       .  A
N948        N949   1.312       .  A
N948       Mn964   2.138       .  S
N949        C955   1.332       .  A
N950        N951   1.338       .  A
N950       Mn975   2.327       .  S
N951        C955   1.375       .  A
N952        N953   1.312       .  A
N952       Mn964   2.136       .  S
N953        C954   1.332       .  A
C954       C2380   1.457       .  S
C955       C2288   1.459       .  S
N956        N962   1.310       .  A
N956        N957   1.317       .  A
N956       Mn986   2.175       .  S
N957        C965   1.349       .  A
N958        N959   1.317       .  A
N958        N960   1.310       .  A
N958       Mn964   2.165       .  S
N959        C966   1.346       .  A
N960        N961   1.317       .  A
N960       Mn986   2.176       .  S
N961        C966   1.350       .  A
N962        N963   1.317       .  A
N962       Mn964   2.166       .  S
N963        C965   1.347       .  A
Mn964      Cl988   2.507       .  S
C965       C2293   1.416       .  S
C966       C2295   1.415       .  S
N967        N968   1.339       .  A
N967        N973   1.319       .  A
N967       Mn975   2.327       .  S
N968        C976   1.376       .  A
N969        N971   1.320       .  A
N969        N970   1.314       .  A
N969       Mn987   2.144       .  S
N970        C977   1.334       .  A
N971        N972   1.339       .  A
N971       Mn975   2.330       .  S
N972        C977   1.376       .  A
N973        N974   1.313       .  A
N973       Mn987   2.137       .  S
N974        C976   1.333       .  A
Mn975      Cl988   2.575       .  S
C976       C2289   1.462       .  S
C977       C2350   1.465       .  S
N978        N979   1.317       .  A
N978        N984   1.310       .  A
N978       Mn986   2.175       .  S
N979        C989   1.350       .  A
N980        N981   1.316       .  A
N980        N982   1.310       .  A
N980       Mn987   2.163       .  S
N981        C990   1.345       .  A
N982        N983   1.318       .  A
N982       Mn986   2.178       .  S
N983        C990   1.351       .  A
N984        N985   1.316       .  A
N984       Mn987   2.161       .  S
N985        C989   1.345       .  A
Mn986      Cl988   2.576       .  S
Mn987      Cl988   2.507       .  S
C989       C2298   1.414       .  S
C990       C2291   1.415       .  S
N991        N992   1.315       .  A
N991        N997   1.310       .  A
N991      Mn1020   2.166       .  S
N992        C999   1.347       .  A
N993        N995   1.310       .  A
N993        N994   1.319       .  A
N993      Mn1009   2.172       .  S
N994       C1000   1.348       .  A
N995        N996   1.317       .  A
N995      Mn1020   2.176       .  S
N996       C1000   1.349       .  A
N997        N998   1.320       .  A
N997      Mn1009   2.183       .  S
N998        C999   1.351       .  A
C999       C2283   1.419       .  S
C1000      C2285   1.421       .  S
N1001      N1007   1.321       .  A
N1001      N1002   1.338       .  A
N1001     Mn1031   2.326       .  S
N1002      C1010   1.375       .  A
N1003      N1004   1.310       .  A
N1003      N1005   1.320       .  A
N1003     Mn1009   2.132       .  S
N1004      C1011   1.331       .  A
N1005      N1006   1.338       .  A
N1005     Mn1031   2.325       .  S
N1006      C1011   1.375       .  A
N1007      N1008   1.312       .  A
N1007     Mn1009   2.143       .  S
N1008      C1010   1.333       .  A
Mn1009    Cl1033   2.521       .  S
C1010      C2386   1.459       .  S
C1011      C2446   1.454       .  S
N1012      N1013   1.315       .  A
N1012      N1018   1.311       .  A
N1012     Mn1020   2.167       .  S
N1013      C1021   1.347       .  A
N1014      N1016   1.310       .  A
N1014      N1015   1.319       .  A
N1014     Mn1032   2.179       .  S
N1015      C1022   1.349       .  A
N1016      N1017   1.316       .  A
N1016     Mn1020   2.172       .  S
N1017      C1022   1.348       .  A
N1018      N1019   1.318       .  A
N1018     Mn1032   2.172       .  S
N1019      C1021   1.348       .  A
Mn1020    Cl1033   2.565       .  S
C1021      C2312   1.415       .  S
C1022      C2281   1.420       .  S
N1023      N1024   1.339       .  A
N1023      N1029   1.320       .  A
N1023     Mn1031   2.328       .  S
N1024      C1034   1.376       .  A
N1025      N1026   1.315       .  A
N1025      N1027   1.320       .  A
N1025     Mn1032   2.152       .  S
N1026      C1035   1.336       .  A
N1027      N1028   1.339       .  A
N1027     Mn1031   2.329       .  S
N1028      C1035   1.376       .  A
N1029      N1030   1.312       .  A
N1029     Mn1032   2.142       .  S
N1030      C1034   1.333       .  A
Mn1031    Cl1033   2.568       .  S
Mn1032    Cl1033   2.520       .  S
C1034      C2410   1.462       .  S
C1035      C2338   1.469       .  S
N1036      N1037   1.338       .  A
N1036      N1042   1.320       .  A
N1036     Mn1065   2.323       .  S
N1037      C1044   1.374       .  A
N1038      N1040   1.319       .  A
N1038      N1039   1.312       .  A
N1038     Mn1054   2.135       .  S
N1039      C1045   1.332       .  A
N1040      N1041   1.339       .  A
N1040     Mn1065   2.326       .  S
N1041      C1045   1.376       .  A
N1042      N1043   1.313       .  A
N1042     Mn1054   2.140       .  S
N1043      C1044   1.334       .  A
C1044      C2458   1.459       .  S
C1045      C2377   1.461       .  S
N1046      N1052   1.310       .  A
N1046      N1047   1.317       .  A
N1046     Mn1076   2.177       .  S
N1047      C1055   1.350       .  A
N1048      N1049   1.317       .  A
N1048      N1050   1.311       .  A
N1048     Mn1054   2.172       .  S
N1049      C1056   1.347       .  A
N1050      N1051   1.317       .  A
N1050     Mn1076   2.177       .  S
N1051      C1056   1.349       .  A
N1052      N1053   1.317       .  A
N1052     Mn1054   2.169       .  S
N1053      C1055   1.347       .  A
Mn1054    Cl1078   2.509       .  S
C1055      C2279   1.418       .  S
C1056      C2276   1.419       .  S
N1057      N1058   1.341       .  A
N1057      N1063   1.319       .  A
N1057     Mn1065   2.335       .  S
N1058      C1066   1.378       .  A
N1059      N1061   1.320       .  A
N1059      N1060   1.313       .  A
N1059     Mn1077   2.137       .  S
N1060      C1067   1.334       .  A
N1061      N1062   1.339       .  A
N1061     Mn1065   2.332       .  S
N1062      C1067   1.375       .  A
N1063      N1064   1.313       .  A
N1063     Mn1077   2.135       .  S
N1064      C1066   1.332       .  A
Mn1065    Cl1078   2.579       .  S
C1066      C2329   1.466       .  S
C1067      C2403   1.462       .  S
N1068      N1069   1.316       .  A
N1068      N1074   1.311       .  A
N1068     Mn1076   2.174       .  S
N1069      C1079   1.348       .  A
N1070      N1071   1.317       .  A
N1070      N1072   1.310       .  A
N1070     Mn1077   2.163       .  S
N1071      C1080   1.346       .  A
N1072      N1073   1.316       .  A
N1072     Mn1076   2.173       .  S
N1073      C1080   1.349       .  A
N1074      N1075   1.318       .  A
N1074     Mn1077   2.172       .  S
N1075      C1079   1.347       .  A
Mn1076    Cl1078   2.558       .  S
Mn1077    Cl1078   2.518       .  S
C1079      C2277   1.417       .  S
C1080      C2273   1.412       .  S
N1081      N1082   1.315       .  A
N1081      N1087   1.310       .  A
N1081     Mn1110   2.168       .  S
N1082      C1089   1.347       .  A
N1083      N1085   1.309       .  A
N1083      N1084   1.318       .  A
N1083     Mn1099   2.171       .  S
N1084      C1090   1.348       .  A
N1085      N1086   1.316       .  A
N1085     Mn1110   2.168       .  S
N1086      C1090   1.348       .  A
N1087      N1088   1.319       .  A
N1087     Mn1099   2.173       .  S
N1088      C1089   1.349       .  A
C1089      C2267   1.417       .  S
C1090      C2272   1.417       .  S
N1091      N1097   1.320       .  A
N1091      N1092   1.339       .  A
N1091     Mn1121   2.328       .  S
N1092      C1100   1.376       .  A
N1093      N1094   1.311       .  A
N1093      N1095   1.320       .  A
N1093     Mn1099   2.136       .  S
N1094      C1101   1.332       .  A
N1095      N1096   1.339       .  A
N1095     Mn1121   2.326       .  S
N1096      C1101   1.376       .  A
N1097      N1098   1.312       .  A
N1097     Mn1099   2.136       .  S
N1098      C1100   1.332       .  A
Mn1099    Cl1123   2.516       .  S
C1100      C2443   1.460       .  S
C1101      C2516   1.459       .  S
N1102      N1103   1.316       .  A
N1102      N1108   1.310       .  A
N1102     Mn1110   2.167       .  S
N1103      C1111   1.348       .  A
N1104      N1106   1.310       .  A
N1104      N1105   1.318       .  A
N1104     Mn1122   2.177       .  S
N1105      C1112   1.349       .  A
N1106      N1107   1.316       .  A
N1106     Mn1110   2.169       .  S
N1107      C1112   1.348       .  A
N1108      N1109   1.318       .  A
N1108     Mn1122   2.174       .  S
N1109      C1111   1.348       .  A
Mn1110    Cl1123   2.567       .  S
C1111      C2270   1.416       .  S
C1112      C2266   1.418       .  S
N1113      N1114   1.338       .  A
N1113      N1119   1.321       .  A
N1113     Mn1121   2.326       .  S
N1114      C1124   1.375       .  A
N1115      N1116   1.312       .  A
N1115      N1117   1.320       .  A
N1115     Mn1122   2.142       .  S
N1116      C1125   1.333       .  A
N1117      N1118   1.338       .  A
N1117     Mn1121   2.321       .  S
N1118      C1125   1.374       .  A
N1119      N1120   1.313       .  A
N1119     Mn1122   2.143       .  S
N1120      C1124   1.333       .  A
Mn1121    Cl1123   2.569       .  S
Mn1122    Cl1123   2.515       .  S
C1124      C2492   1.460       .  S
C1125      C2421   1.457       .  S
N1126      N1127   1.339       .  A
N1126      N1132   1.320       .  A
N1126     Mn1155   2.328       .  S
N1127      C1134   1.376       .  A
N1128      N1130   1.321       .  A
N1128      N1129   1.312       .  A
N1128     Mn1144   2.143       .  S
N1129      C1135   1.333       .  A
N1130      N1131   1.339       .  A
N1130     Mn1155   2.328       .  S
N1131      C1135   1.375       .  A
N1132      N1133   1.311       .  A
N1132     Mn1144   2.132       .  S
N1133      C1134   1.331       .  A
C1134      C2438   1.458       .  S
C1135      C2261   1.461       .  S
N1136      N1142   1.310       .  A
N1136      N1137   1.318       .  A
N1136     Mn1166   2.181       .  S
N1137      C1145   1.350       .  A
N1138      N1139   1.319       .  A
N1138      N1140   1.310       .  A
N1138     Mn1144   2.181       .  S
N1139      C1146   1.350       .  A
N1140      N1141   1.315       .  A
N1140     Mn1166   2.164       .  S
N1141      C1146   1.347       .  A
N1142      N1143   1.318       .  A
N1142     Mn1144   2.169       .  S
N1143      C1145   1.347       .  A
Mn1144    Cl1168   2.518       .  S
C1145      C2260   1.421       .  S
C1146      C2263   1.419       .  S
N1147      N1148   1.339       .  A
N1147      N1153   1.320       .  A
N1147     Mn1155   2.329       .  S
N1148      C1156   1.376       .  A
N1149      N1151   1.320       .  A
N1149      N1150   1.313       .  A
N1149     Mn1167   2.147       .  S
N1150      C1157   1.334       .  A
N1151      N1152   1.339       .  A
N1151     Mn1155   2.325       .  S
N1152      C1157   1.375       .  A
N1153      N1154   1.313       .  A
N1153     Mn1167   2.144       .  S
N1154      C1156   1.334       .  A
Mn1155    Cl1168   2.570       .  S
C1156      C2258   1.463       .  S
C1157      C2411   1.462       .  S
N1158      N1159   1.317       .  A
N1158      N1164   1.310       .  A
N1158     Mn1166   2.178       .  S
N1159      C1169   1.349       .  A
N1160      N1161   1.319       .  A
N1160      N1162   1.311       .  A
N1160     Mn1167   2.180       .  S
N1161      C1170   1.350       .  A
N1162      N1163   1.314       .  A
N1162     Mn1166   2.161       .  S
N1163      C1170   1.346       .  A
N1164      N1165   1.318       .  A
N1164     Mn1167   2.174       .  S
N1165      C1169   1.348       .  A
Mn1166    Cl1168   2.568       .  S
Mn1167    Cl1168   2.517       .  S
C1169      C2282   1.421       .  S
C1170      C2310   1.415       .  S
N1171      N1172   1.316       .  A
N1171      N1177   1.310       .  A
N1171     Mn1200   2.172       .  S
N1172      C1179   1.349       .  A
N1173      N1175   1.309       .  A
N1173      N1174   1.318       .  A
N1173     Mn1189   2.168       .  S
N1174      C1180   1.347       .  A
N1175      N1176   1.317       .  A
N1175     Mn1200   2.174       .  S
N1176      C1180   1.350       .  A
N1177      N1178   1.318       .  A
N1177     Mn1189   2.170       .  S
N1178      C1179   1.348       .  A
C1179      C2255   1.417       .  S
C1180      C2322   1.419       .  S
N1181      N1187   1.320       .  A
N1181      N1182   1.338       .  A
N1181     Mn1211   2.321       .  S
N1182      C1190   1.375       .  A
N1183      N1184   1.312       .  A
N1183      N1185   1.320       .  A
N1183     Mn1189   2.136       .  S
N1184      C1191   1.332       .  A
N1185      N1186   1.339       .  A
N1185     Mn1211   2.329       .  S
N1186      C1191   1.376       .  A
N1187      N1188   1.310       .  A
N1187     Mn1189   2.132       .  S
N1188      C1190   1.331       .  A
Mn1189    Cl1213   2.510       .  S
C1190      C2253   1.455       .  S
C1191      C2466   1.461       .  S
N1192      N1193   1.316       .  A
N1192      N1198   1.310       .  A
N1192     Mn1200   2.168       .  S
N1193      C1201   1.348       .  A
N1194      N1196   1.310       .  A
N1194      N1195   1.318       .  A
N1194     Mn1212   2.168       .  S
N1195      C1202   1.347       .  A
N1196      N1197   1.316       .  A
N1196     Mn1200   2.170       .  S
N1197      C1202   1.348       .  A
N1198      N1199   1.318       .  A
N1198     Mn1212   2.173       .  S
N1199      C1201   1.347       .  A
Mn1200    Cl1213   2.571       .  S
C1201      C2252   1.415       .  S
C1202      C2269   1.416       .  S
N1203      N1204   1.337       .  A
N1203      N1209   1.320       .  A
N1203     Mn1211   2.321       .  S
N1204      C1214   1.374       .  A
N1205      N1206   1.312       .  A
N1205      N1207   1.320       .  A
N1205     Mn1212   2.133       .  S
N1206      C1215   1.331       .  A
N1207      N1208   1.340       .  A
N1207     Mn1211   2.331       .  S
N1208      C1215   1.376       .  A
N1209      N1210   1.313       .  A
N1209     Mn1212   2.146       .  S
N1210      C1214   1.334       .  A
Mn1211    Cl1213   2.570       .  S
Mn1212    Cl1213   2.512       .  S
C1214      C2420   1.460       .  S
C1215      C2250   1.460       .  S
N1216      N1217   1.340       .  A
N1216      N1222   1.321       .  A
N1216     Mn1245   2.336       .  S
N1217      C1224   1.377       .  A
N1218      N1220   1.322       .  A
N1218      N1219   1.313       .  A
N1218     Mn1234   2.149       .  S
N1219      C1225   1.334       .  A
N1220      N1221   1.339       .  A
N1220     Mn1245   2.331       .  S
N1221      C1225   1.375       .  A
N1222      N1223   1.312       .  A
N1222     Mn1234   2.139       .  S
N1223      C1224   1.332       .  A
C1224      C2428   1.462       .  S
C1225      C2241   1.463       .  S
N1226      N1232   1.310       .  A
N1226      N1227   1.316       .  A
N1226     Mn1256   2.172       .  S
N1227      C1235   1.347       .  A
N1228      N1229   1.320       .  A
N1228      N1230   1.310       .  A
N1228     Mn1234   2.187       .  S
N1229      C1236   1.352       .  A
N1230      N1231   1.314       .  A
N1230     Mn1256   2.163       .  S
N1231      C1236   1.345       .  A
N1232      N1233   1.320       .  A
N1232     Mn1234   2.179       .  S
N1233      C1235   1.350       .  A
Mn1234    Cl1258   2.524       .  S
C1235      C2240   1.422       .  S
C1236      C2246   1.418       .  S
N1237      N1238   1.340       .  A
N1237      N1243   1.320       .  A
N1237     Mn1245   2.333       .  S
N1238      C1246   1.377       .  A
N1239      N1241   1.320       .  A
N1239      N1240   1.311       .  A
N1239     Mn1257   2.135       .  S
N1240      C1247   1.331       .  A
N1241      N1242   1.340       .  A
N1241     Mn1245   2.337       .  S
N1242      C1247   1.377       .  A
N1243      N1244   1.313       .  A
N1243     Mn1257   2.142       .  S
N1244      C1246   1.333       .  A
Mn1245    Cl1258   2.567       .  S
C1246      C2244   1.466       .  S
C1247      C2418   1.462       .  S
N1248      N1249   1.317       .  A
N1248      N1254   1.309       .  A
N1248     Mn1256   2.175       .  S
N1249      C1259   1.349       .  A
N1250      N1251   1.318       .  A
N1250      N1252   1.310       .  A
N1250     Mn1257   2.168       .  S
N1251      C1260   1.348       .  A
N1252      N1253   1.315       .  A
N1252     Mn1256   2.168       .  S
N1253      C1260   1.348       .  A
N1254      N1255   1.319       .  A
N1254     Mn1257   2.177       .  S
N1255      C1259   1.349       .  A
Mn1256    Cl1258   2.563       .  S
Mn1257    Cl1258   2.522       .  S
C1259      C2247   1.423       .  S
C1260      C2294   1.415       .  S
N1261      N1262   1.316       .  A
N1261      N1267   1.310       .  A
N1261     Mn1290   2.167       .  S
N1262      C1269   1.347       .  A
N1263      N1265   1.310       .  A
N1263      N1264   1.319       .  A
N1263     Mn1279   2.174       .  S
N1264      C1270   1.348       .  A
N1265      N1266   1.315       .  A
N1265     Mn1290   2.164       .  S
N1266      C1270   1.347       .  A
N1267      N1268   1.319       .  A
N1267     Mn1279   2.175       .  S
N1268      C1269   1.348       .  A
C1269      C2237   1.417       .  S
C1270      C2231   1.416       .  S
N1271      N1277   1.321       .  A
N1271      N1272   1.338       .  A
N1271     Mn1301   2.326       .  S
N1272      C1280   1.375       .  A
N1273      N1274   1.313       .  A
N1273      N1275   1.321       .  A
N1273     Mn1279   2.141       .  S
N1274      C1281   1.333       .  A
N1275      N1276   1.339       .  A
N1275     Mn1301   2.329       .  S
N1276      C1281   1.375       .  A
N1277      N1278   1.312       .  A
N1277     Mn1279   2.142       .  S
N1278      C1280   1.333       .  A
Mn1279    Cl1303   2.516       .  S
C1280      C2230   1.460       .  S
C1281      C2262   1.461       .  S
N1282      N1283   1.316       .  A
N1282      N1288   1.310       .  A
N1282     Mn1290   2.168       .  S
N1283      C1291   1.348       .  A
N1284      N1286   1.310       .  A
N1284      N1285   1.318       .  A
N1284     Mn1302   2.172       .  S
N1285      C1292   1.347       .  A
N1286      N1287   1.316       .  A
N1286     Mn1290   2.167       .  S
N1287      C1292   1.348       .  A
N1288      N1289   1.318       .  A
N1288     Mn1302   2.173       .  S
N1289      C1291   1.348       .  A
Mn1290    Cl1303   2.571       .  S
C1291      C2233   1.416       .  S
C1292      C2235   1.416       .  S
N1293      N1294   1.338       .  A
N1293      N1299   1.320       .  A
N1293     Mn1301   2.327       .  S
N1294      C1304   1.375       .  A
N1295      N1296   1.314       .  A
N1295      N1297   1.320       .  A
N1295     Mn1302   2.144       .  S
N1296      C1305   1.334       .  A
N1297      N1298   1.339       .  A
N1297     Mn1301   2.328       .  S
N1298      C1305   1.375       .  A
N1299      N1300   1.314       .  A
N1299     Mn1302   2.147       .  S
N1300      C1304   1.334       .  A
Mn1301    Cl1303   2.569       .  S
Mn1302    Cl1303   2.515       .  S
C1304      C2227   1.463       .  S
C1305      C2242   1.463       .  S
N1306      N1307   1.339       .  A
N1306      N1312   1.321       .  A
N1306     Mn1335   2.331       .  S
N1307      C1314   1.376       .  A
N1308      N1310   1.321       .  A
N1308      N1309   1.313       .  A
N1308     Mn1324   2.143       .  S
N1309      C1315   1.333       .  A
N1310      N1311   1.339       .  A
N1310     Mn1335   2.330       .  S
N1311      C1315   1.375       .  A
N1312      N1313   1.313       .  A
N1312     Mn1324   2.142       .  S
N1313      C1314   1.333       .  A
C1314      C2372   1.463       .  S
C1315      C2223   1.462       .  S
N1316      N1322   1.310       .  A
N1316      N1317   1.315       .  A
N1316     Mn1346   2.167       .  S
N1317      C1325   1.347       .  A
N1318      N1319   1.319       .  A
N1318      N1320   1.310       .  A
N1318     Mn1324   2.178       .  S
N1319      C1326   1.349       .  A
N1320      N1321   1.315       .  A
N1320     Mn1346   2.168       .  S
N1321      C1326   1.347       .  A
N1322      N1323   1.319       .  A
N1322     Mn1324   2.174       .  S
N1323      C1325   1.349       .  A
Mn1324    Cl1348   2.522       .  S
C1325      C2221   1.416       .  S
C1326      C2280   1.418       .  S
N1327      N1328   1.340       .  A
N1327      N1333   1.320       .  A
N1327     Mn1335   2.336       .  S
N1328      C1336   1.376       .  A
N1329      N1331   1.320       .  A
N1329      N1330   1.314       .  A
N1329     Mn1347   2.148       .  S
N1330      C1337   1.335       .  A
N1331      N1332   1.339       .  A
N1331     Mn1335   2.330       .  S
N1332      C1337   1.376       .  A
N1333      N1334   1.313       .  A
N1333     Mn1347   2.142       .  S
N1334      C1336   1.333       .  A
Mn1335    Cl1348   2.566       .  S
C1336      C2218   1.465       .  S
C1337      C2364   1.466       .  S
N1338      N1339   1.316       .  A
N1338      N1344   1.310       .  A
N1338     Mn1346   2.170       .  S
N1339      C1349   1.347       .  A
N1340      N1341   1.319       .  A
N1340      N1342   1.310       .  A
N1340     Mn1347   2.175       .  S
N1341      C1350   1.348       .  A
N1342      N1343   1.316       .  A
N1342     Mn1346   2.166       .  S
N1343      C1350   1.347       .  A
N1344      N1345   1.319       .  A
N1344     Mn1347   2.175       .  S
N1345      C1349   1.348       .  A
Mn1346    Cl1348   2.566       .  S
Mn1347    Cl1348   2.522       .  S
C1349      C2225   1.418       .  S
C1350      C2219   1.416       .  S
N1351      N1352   1.316       .  A
N1351      N1357   1.309       .  A
N1351     Mn1380   2.172       .  S
N1352      C1359   1.349       .  A
N1353      N1355   1.311       .  A
N1353      N1354   1.320       .  A
N1353     Mn1369   2.185       .  S
N1354      C1360   1.351       .  A
N1355      N1356   1.315       .  A
N1355     Mn1380   2.167       .  S
N1356      C1360   1.346       .  A
N1357      N1358   1.317       .  A
N1357     Mn1369   2.158       .  S
N1358      C1359   1.346       .  A
C1359      C2210   1.415       .  S
C1360      C2211   1.418       .  S
N1361      N1367   1.319       .  A
N1361      N1362   1.340       .  A
N1361     Mn1391   2.331       .  S
N1362      C1370   1.376       .  A
N1363      N1364   1.314       .  A
N1363      N1365   1.321       .  A
N1363     Mn1369   2.151       .  S
N1364      C1371   1.334       .  A
N1365      N1366   1.339       .  A
N1365     Mn1391   2.330       .  S
N1366      C1371   1.376       .  A
N1367      N1368   1.310       .  A
N1367     Mn1369   2.125       .  S
N1368      C1370   1.330       .  A
Mn1369    Cl1393   2.521       .  S
C1370      C2213   1.458       .  S
C1371      C2306   1.465       .  S
N1372      N1373   1.316       .  A
N1372      N1378   1.310       .  A
N1372     Mn1380   2.172       .  S
N1373      C1381   1.348       .  A
N1374      N1376   1.310       .  A
N1374      N1375   1.317       .  A
N1374     Mn1392   2.172       .  S
N1375      C1382   1.348       .  A
N1376      N1377   1.316       .  A
N1376     Mn1380   2.171       .  S
N1377      C1382   1.349       .  A
N1378      N1379   1.320       .  A
N1378     Mn1392   2.181       .  S
N1379      C1381   1.350       .  A
Mn1380    Cl1393   2.565       .  S
C1381      C2216   1.423       .  S
C1382      C2238   1.416       .  S
N1383      N1384   1.339       .  A
N1383      N1389   1.320       .  A
N1383     Mn1391   2.325       .  S
N1384      C1394   1.375       .  A
N1385      N1386   1.313       .  A
N1385      N1387   1.322       .  A
N1385     Mn1392   2.150       .  S
N1386      C1395   1.335       .  A
N1387      N1388   1.338       .  A
N1387     Mn1391   2.327       .  S
N1388      C1395   1.375       .  A
N1389      N1390   1.313       .  A
N1389     Mn1392   2.142       .  S
N1390      C1394   1.333       .  A
Mn1391    Cl1393   2.568       .  S
Mn1392    Cl1393   2.517       .  S
C1394      C2257   1.463       .  S
C1395      C2224   1.462       .  S
N1396      N1397   1.339       .  A
N1396      N1402   1.320       .  A
N1396     Mn1425   2.331       .  S
N1397      C1404   1.376       .  A
N1398      N1400   1.320       .  A
N1398      N1399   1.310       .  A
N1398     Mn1414   2.131       .  S
N1399      C1405   1.330       .  A
N1400      N1401   1.338       .  A
N1400     Mn1425   2.321       .  S
N1401      C1405   1.375       .  A
N1402      N1403   1.312       .  A
N1402     Mn1414   2.138       .  S
N1403      C1404   1.332       .  A
C1404      C2538   1.462       .  S
C1405      C2205   1.454       .  S
N1406      N1412   1.309       .  A
N1406      N1407   1.317       .  A
N1406     Mn1436   2.174       .  S
N1407      C1415   1.350       .  A
N1408      N1409   1.318       .  A
N1408      N1410   1.310       .  A
N1408     Mn1414   2.169       .  S
N1409      C1416   1.348       .  A
N1410      N1411   1.316       .  A
N1410     Mn1436   2.169       .  S
N1411      C1416   1.348       .  A
N1412      N1413   1.318       .  A
N1412     Mn1414   2.170       .  S
N1413      C1415   1.347       .  A
Mn1414    Cl1438   2.511       .  S
C1415      C2324   1.418       .  S
C1416      C2208   1.416       .  S
N1417      N1418   1.339       .  A
N1417      N1423   1.320       .  A
N1417     Mn1425   2.329       .  S
N1418      C1426   1.376       .  A
N1419      N1421   1.321       .  A
N1419      N1420   1.313       .  A
N1419     Mn1437   2.146       .  S
N1420      C1427   1.334       .  A
N1421      N1422   1.338       .  A
N1421     Mn1425   2.323       .  S
N1422      C1427   1.374       .  A
N1423      N1424   1.311       .  A
N1423     Mn1437   2.134       .  S
N1424      C1426   1.331       .  A
Mn1425    Cl1438   2.571       .  S
C1426      C2204   1.459       .  S
C1427      C2493   1.460       .  S
N1428      N1429   1.316       .  A
N1428      N1434   1.310       .  A
N1428     Mn1436   2.172       .  S
N1429      C1439   1.348       .  A
N1430      N1431   1.318       .  A
N1430      N1432   1.310       .  A
N1430     Mn1437   2.173       .  S
N1431      C1440   1.348       .  A
N1432      N1433   1.316       .  A
N1432     Mn1436   2.167       .  S
N1433      C1440   1.348       .  A
N1434      N1435   1.318       .  A
N1434     Mn1437   2.170       .  S
N1435      C1439   1.348       .  A
Mn1436    Cl1438   2.571       .  S
Mn1437    Cl1438   2.512       .  S
C1439      C2265   1.418       .  S
C1440      C2251   1.415       .  S
N1441      N1442   1.315       .  A
N1441      N1447   1.310       .  A
N1441     Mn1470   2.164       .  S
N1442      C1449   1.347       .  A
N1443      N1445   1.310       .  A
N1443      N1444   1.318       .  A
N1443     Mn1459   2.171       .  S
N1444      C1450   1.348       .  A
N1445      N1446   1.318       .  A
N1445     Mn1470   2.182       .  S
N1446      C1450   1.350       .  A
N1447      N1448   1.319       .  A
N1447     Mn1459   2.178       .  S
N1448      C1449   1.349       .  A
C1449      C2201   1.418       .  S
C1450      C2239   1.423       .  S
N1451      N1457   1.321       .  A
N1451      N1452   1.339       .  A
N1451     Mn1481   2.328       .  S
N1452      C1460   1.375       .  A
N1453      N1454   1.311       .  A
N1453      N1455   1.320       .  A
N1453     Mn1459   2.135       .  S
N1454      C1461   1.332       .  A
N1455      N1456   1.339       .  A
N1455     Mn1481   2.328       .  S
N1456      C1461   1.376       .  A
N1457      N1458   1.312       .  A
N1457     Mn1459   2.143       .  S
N1458      C1460   1.333       .  A
Mn1459    Cl1483   2.517       .  S
C1460      C2229   1.460       .  S
C1461      C2509   1.459       .  S
N1462      N1463   1.314       .  A
N1462      N1468   1.311       .  A
N1462     Mn1470   2.160       .  S
N1463      C1471   1.345       .  A
N1464      N1466   1.310       .  A
N1464      N1465   1.318       .  A
N1464     Mn1482   2.168       .  S
N1465      C1472   1.347       .  A
N1466      N1467   1.317       .  A
N1466     Mn1470   2.178       .  S
N1467      C1472   1.349       .  A
N1468      N1469   1.319       .  A
N1468     Mn1482   2.180       .  S
N1469      C1471   1.350       .  A
Mn1470    Cl1483   2.567       .  S
C1471      C2292   1.415       .  S
C1472      C2301   1.418       .  S
N1473      N1474   1.339       .  A
N1473      N1479   1.320       .  A
N1473     Mn1481   2.327       .  S
N1474      C1484   1.375       .  A
N1475      N1476   1.313       .  A
N1475      N1477   1.320       .  A
N1475     Mn1482   2.139       .  S
N1476      C1485   1.333       .  A
N1477      N1478   1.339       .  A
N1477     Mn1481   2.330       .  S
N1478      C1485   1.376       .  A
N1479      N1480   1.313       .  A
N1479     Mn1482   2.149       .  S
N1480      C1484   1.334       .  A
Mn1481    Cl1483   2.569       .  S
Mn1482    Cl1483   2.518       .  S
C1484      C2482   1.464       .  S
C1485      C2200   1.462       .  S
N1486      N1487   1.315       .  A
N1486      N1492   1.311       .  A
N1486     Mn1515   2.166       .  S
N1487      C1494   1.346       .  A
N1488      N1490   1.310       .  A
N1488      N1489   1.320       .  A
N1488     Mn1504   2.179       .  S
N1489      C1495   1.350       .  A
N1490      N1491   1.316       .  A
N1490     Mn1515   2.169       .  S
N1491      C1495   1.347       .  A
N1492      N1493   1.320       .  A
N1492     Mn1504   2.182       .  S
N1493      C1494   1.350       .  A
C1494      C2197   1.418       .  S
C1495      C2259   1.421       .  S
N1496      N1502   1.321       .  A
N1496      N1497   1.339       .  A
N1496     Mn1526   2.329       .  S
N1497      C1505   1.375       .  A
N1498      N1499   1.313       .  A
N1498      N1500   1.321       .  A
N1498     Mn1504   2.144       .  S
N1499      C1506   1.333       .  A
N1500      N1501   1.340       .  A
N1500     Mn1526   2.336       .  S
N1501      C1506   1.377       .  A
N1502      N1503   1.313       .  A
N1502     Mn1504   2.147       .  S
N1503      C1505   1.334       .  A
Mn1504    Cl1528   2.524       .  S
C1505      C2228   1.462       .  S
C1506      C2499   1.466       .  S
N1507      N1508   1.315       .  A
N1507      N1513   1.310       .  A
N1507     Mn1515   2.168       .  S
N1508      C1516   1.347       .  A
N1509      N1511   1.309       .  A
N1509      N1510   1.319       .  A
N1509     Mn1527   2.172       .  S
N1510      C1517   1.349       .  A
N1511      N1512   1.316       .  A
N1511     Mn1515   2.171       .  S
N1512      C1517   1.348       .  A
N1513      N1514   1.319       .  A
N1513     Mn1527   2.174       .  S
N1514      C1516   1.349       .  A
Mn1515    Cl1528   2.562       .  S
C1516      C2313   1.417       .  S
C1517      C2196   1.419       .  S
N1518      N1519   1.339       .  A
N1518      N1524   1.321       .  A
N1518     Mn1526   2.331       .  S
N1519      C1529   1.376       .  A
N1520      N1521   1.312       .  A
N1520      N1522   1.319       .  A
N1520     Mn1527   2.136       .  S
N1521      C1530   1.332       .  A
N1522      N1523   1.339       .  A
N1522     Mn1526   2.329       .  S
N1523      C1530   1.376       .  A
N1524      N1525   1.312       .  A
N1524     Mn1527   2.142       .  S
N1525      C1529   1.333       .  A
Mn1526    Cl1528   2.565       .  S
Mn1527    Cl1528   2.522       .  S
C1529      C2490   1.462       .  S
C1530      C2193   1.461       .  S
N1531      N1532   1.337       .  A
N1531      N1537   1.321       .  A
N1531     Mn1560   2.321       .  S
N1532      C1539   1.374       .  A
N1533      N1535   1.320       .  A
N1533      N1534   1.312       .  A
N1533     Mn1549   2.136       .  S
N1534      C1540   1.332       .  A
N1535      N1536   1.339       .  A
N1535     Mn1560   2.326       .  S
N1536      C1540   1.376       .  A
N1537      N1538   1.315       .  A
N1537     Mn1549   2.154       .  S
N1538      C1539   1.336       .  A
C1539      C2319   1.463       .  S
C1540      C2194   1.461       .  S
N1541      N1547   1.310       .  A
N1541      N1542   1.316       .  A
N1541     Mn1571   2.163       .  S
N1542      C1550   1.348       .  A
N1543      N1544   1.317       .  A
N1543      N1545   1.309       .  A
N1543     Mn1549   2.168       .  S
N1544      C1551   1.347       .  A
N1545      N1546   1.317       .  A
N1545     Mn1571   2.173       .  S
N1546      C1551   1.349       .  A
N1547      N1548   1.318       .  A
N1547     Mn1549   2.177       .  S
N1548      C1550   1.349       .  A
Mn1549    Cl1573   2.511       .  S
C1550      C2236   1.415       .  S
C1551      C2190   1.418       .  S
N1552      N1553   1.338       .  A
N1552      N1558   1.320       .  A
N1552     Mn1560   2.325       .  S
N1553      C1561   1.375       .  A
N1554      N1556   1.320       .  A
N1554      N1555   1.310       .  A
N1554     Mn1572   2.122       .  S
N1555      C1562   1.329       .  A
N1556      N1557   1.339       .  A
N1556     Mn1560   2.329       .  S
N1557      C1562   1.375       .  A
N1558      N1559   1.311       .  A
N1558     Mn1572   2.137       .  S
N1559      C1561   1.332       .  A
Mn1560    Cl1573   2.568       .  S
C1561      C2308   1.456       .  S
C1562      C2206   1.454       .  S
N1563      N1564   1.314       .  A
N1563      N1569   1.310       .  A
N1563     Mn1571   2.162       .  S
N1564      C1574   1.346       .  A
N1565      N1566   1.318       .  A
N1565      N1567   1.309       .  A
N1565     Mn1572   2.162       .  S
N1566      C1575   1.347       .  A
N1567      N1568   1.315       .  A
N1567     Mn1571   2.170       .  S
N1568      C1575   1.348       .  A
N1569      N1570   1.319       .  A
N1569     Mn1572   2.175       .  S
N1570      C1574   1.349       .  A
Mn1571    Cl1573   2.567       .  S
Mn1572    Cl1573   2.515       .  S
C1574      C2191   1.415       .  S
C1575      C2209   1.414       .  S
N1576      N1577   1.317       .  A
N1576      N1582   1.310       .  A
N1576     Mn1605   2.174       .  S
N1577      C1584   1.349       .  A
N1578      N1580   1.309       .  A
N1578      N1579   1.317       .  A
N1578     Mn1594   2.167       .  S
N1579      C1585   1.347       .  A
N1580      N1581   1.317       .  A
N1580     Mn1605   2.176       .  S
N1581      C1585   1.350       .  A
N1582      N1583   1.317       .  A
N1582     Mn1594   2.168       .  S
N1583      C1584   1.347       .  A
C1584      C2185   1.417       .  S
C1585      C2226   1.417       .  S
N1586      N1592   1.320       .  A
N1586      N1587   1.339       .  A
N1586     Mn1616   2.324       .  S
N1587      C1595   1.376       .  A
N1588      N1589   1.312       .  A
N1588      N1590   1.320       .  A
N1588     Mn1594   2.139       .  S
N1589      C1596   1.333       .  A
N1590      N1591   1.337       .  A
N1590     Mn1616   2.320       .  S
N1591      C1596   1.374       .  A
N1592      N1593   1.311       .  A
N1592     Mn1594   2.136       .  S
N1593      C1595   1.332       .  A
Mn1594    Cl1618   2.509       .  S
C1595      C2361   1.459       .  S
C1596      C2532   1.457       .  S
N1597      N1598   1.315       .  A
N1597      N1603   1.310       .  A
N1597     Mn1605   2.170       .  S
N1598      C1606   1.348       .  A
N1599      N1601   1.311       .  A
N1599      N1600   1.318       .  A
N1599     Mn1617   2.170       .  S
N1600      C1607   1.347       .  A
N1601      N1602   1.316       .  A
N1601     Mn1605   2.175       .  S
N1602      C1607   1.348       .  A
N1603      N1604   1.317       .  A
N1603     Mn1617   2.165       .  S
N1604      C1606   1.346       .  A
Mn1605    Cl1618   2.569       .  S
C1606      C2274   1.413       .  S
C1607      C2187   1.417       .  S
N1608      N1609   1.339       .  A
N1608      N1614   1.320       .  A
N1608     Mn1616   2.332       .  S
N1609      C1619   1.375       .  A
N1610      N1611   1.312       .  A
N1610      N1612   1.320       .  A
N1610     Mn1617   2.137       .  S
N1611      C1620   1.332       .  A
N1612      N1613   1.340       .  A
N1612     Mn1616   2.332       .  S
N1613      C1620   1.377       .  A
N1614      N1615   1.313       .  A
N1614     Mn1617   2.140       .  S
N1615      C1619   1.334       .  A
Mn1616    Cl1618   2.569       .  S
Mn1617    Cl1618   2.517       .  S
C1619      C2476   1.463       .  S
C1620      C2332   1.464       .  S
N1621      N1622   1.317       .  A
N1621      N1627   1.310       .  A
N1621     Mn1650   2.171       .  S
N1622      C1629   1.348       .  A
N1623      N1625   1.310       .  A
N1623      N1624   1.317       .  A
N1623     Mn1639   2.175       .  S
N1624      C1630   1.348       .  A
N1625      N1626   1.316       .  A
N1625     Mn1650   2.166       .  S
N1626      C1630   1.348       .  A
N1627      N1628   1.318       .  A
N1627     Mn1639   2.172       .  S
N1628      C1629   1.348       .  A
C1629      C2189   1.418       .  S
C1630      C2234   1.415       .  S
N1631      N1637   1.319       .  A
N1631      N1632   1.340       .  A
N1631     Mn1661   2.329       .  S
N1632      C1640   1.376       .  A
N1633      N1634   1.314       .  A
N1633      N1635   1.321       .  A
N1633     Mn1639   2.151       .  S
N1634      C1641   1.336       .  A
N1635      N1636   1.337       .  A
N1635     Mn1661   2.321       .  S
N1636      C1641   1.374       .  A
N1637      N1638   1.313       .  A
N1637     Mn1639   2.142       .  S
N1638      C1640   1.333       .  A
Mn1639    Cl1663   2.515       .  S
C1640      C2243   1.466       .  S
C1641      C2318   1.462       .  S
N1642      N1643   1.315       .  A
N1642      N1648   1.309       .  A
N1642     Mn1650   2.168       .  S
N1643      C1651   1.348       .  A
N1644      N1646   1.310       .  A
N1644      N1645   1.320       .  A
N1644     Mn1662   2.178       .  S
N1645      C1652   1.350       .  A
N1646      N1647   1.314       .  A
N1646     Mn1650   2.164       .  S
N1647      C1652   1.346       .  A
N1648      N1649   1.318       .  A
N1648     Mn1662   2.165       .  S
N1649      C1651   1.348       .  A
Mn1650    Cl1663   2.565       .  S
C1651      C2182   1.415       .  S
C1652      C2184   1.416       .  S
N1653      N1654   1.339       .  A
N1653      N1659   1.320       .  A
N1653     Mn1661   2.329       .  S
N1654      C1664   1.375       .  A
N1655      N1656   1.311       .  A
N1655      N1657   1.321       .  A
N1655     Mn1662   2.139       .  S
N1656      C1665   1.332       .  A
N1657      N1658   1.339       .  A
N1657     Mn1661   2.329       .  S
N1658      C1665   1.375       .  A
N1659      N1660   1.310       .  A
N1659     Mn1662   2.122       .  S
N1660      C1664   1.329       .  A
Mn1661    Cl1663   2.566       .  S
Mn1662    Cl1663   2.520       .  S
C1664      C2254   1.454       .  S
C1665      C2287   1.458       .  S
N1666      N1667   1.338       .  A
N1666      N1672   1.320       .  A
N1666     Mn1695   2.320       .  S
N1667      C1674   1.374       .  A
N1668      N1670   1.320       .  A
N1668      N1669   1.312       .  A
N1668     Mn1684   2.137       .  S
N1669      C1675   1.332       .  A
N1670      N1671   1.338       .  A
N1670     Mn1695   2.321       .  S
N1671      C1675   1.374       .  A
N1672      N1673   1.312       .  A
N1672     Mn1684   2.140       .  S
N1673      C1674   1.333       .  A
C1674      C2508   1.458       .  S
C1675      C2435   1.456       .  S
N1676      N1682   1.310       .  A
N1676      N1677   1.316       .  A
N1676     Mn1706   2.170       .  S
N1677      C1685   1.349       .  A
N1678      N1679   1.318       .  A
N1678      N1680   1.309       .  A
N1678     Mn1684   2.170       .  S
N1679      C1686   1.348       .  A
N1680      N1681   1.316       .  A
N1680     Mn1706   2.169       .  S
N1681      C1686   1.348       .  A
N1682      N1683   1.318       .  A
N1682     Mn1684   2.173       .  S
N1683      C1685   1.348       .  A
Mn1684    Cl1708   2.514       .  S
C1685      C2177   1.417       .  S
C1686      C2179   1.416       .  S
N1687      N1688   1.338       .  A
N1687      N1693   1.319       .  A
N1687     Mn1695   2.319       .  S
N1688      C1696   1.374       .  A
N1689      N1691   1.320       .  A
N1689      N1690   1.313       .  A
N1689     Mn1707   2.143       .  S
N1690      C1697   1.334       .  A
N1691      N1692   1.339       .  A
N1691     Mn1695   2.326       .  S
N1692      C1697   1.375       .  A
N1693      N1694   1.312       .  A
N1693     Mn1707   2.141       .  S
N1694      C1696   1.333       .  A
Mn1695    Cl1708   2.568       .  S
C1696      C2402   1.458       .  S
C1697      C2473   1.462       .  S
N1698      N1699   1.316       .  A
N1698      N1704   1.310       .  A
N1698     Mn1706   2.170       .  S
N1699      C1709   1.348       .  A
N1700      N1701   1.318       .  A
N1700      N1702   1.310       .  A
N1700     Mn1707   2.173       .  S
N1701      C1710   1.348       .  A
N1702      N1703   1.315       .  A
N1702     Mn1706   2.167       .  S
N1703      C1710   1.348       .  A
N1704      N1705   1.318       .  A
N1704     Mn1707   2.171       .  S
N1705      C1709   1.348       .  A
Mn1706    Cl1708   2.566       .  S
Mn1707    Cl1708   2.514       .  S
C1709      C2188   1.416       .  S
C1710      C2278   1.415       .  S
N1711      N1712   1.318       .  A
N1711      N1717   1.310       .  A
N1711     Mn1740   2.183       .  S
N1712      C1719   1.351       .  A
N1713      N1715   1.310       .  A
N1713      N1714   1.317       .  A
N1713     Mn1729   2.163       .  S
N1714      C1720   1.345       .  A
N1715      N1716   1.318       .  A
N1715     Mn1740   2.184       .  S
N1716      C1720   1.351       .  A
N1717      N1718   1.316       .  A
N1717     Mn1729   2.161       .  S
N1718      C1719   1.345       .  A
C1719      C2183   1.417       .  S
C1720      C2173   1.418       .  S
N1721      N1727   1.320       .  A
N1721      N1722   1.339       .  A
N1721     Mn1751   2.328       .  S
N1722      C1730   1.376       .  A
N1723      N1724   1.312       .  A
N1723      N1725   1.319       .  A
N1723     Mn1729   2.134       .  S
N1724      C1731   1.332       .  A
N1725      N1726   1.339       .  A
N1725     Mn1751   2.328       .  S
N1726      C1731   1.376       .  A
N1727      N1728   1.311       .  A
N1727     Mn1729   2.133       .  S
N1728      C1730   1.331       .  A
Mn1729    Cl1753   2.504       .  S
C1730      C2176   1.459       .  S
C1731      C2249   1.460       .  S
N1732      N1733   1.319       .  A
N1732      N1738   1.310       .  A
N1732     Mn1740   2.185       .  S
N1733      C1741   1.351       .  A
N1734      N1736   1.310       .  A
N1734      N1735   1.316       .  A
N1734     Mn1752   2.161       .  S
N1735      C1742   1.345       .  A
N1736      N1737   1.318       .  A
N1736     Mn1740   2.181       .  S
N1737      C1742   1.351       .  A
N1738      N1739   1.317       .  A
N1738     Mn1752   2.165       .  S
N1739      C1741   1.345       .  A
Mn1740    Cl1753   2.578       .  S
C1741      C2212   1.420       .  S
C1742      C2192   1.416       .  S
N1743      N1744   1.338       .  A
N1743      N1749   1.320       .  A
N1743     Mn1751   2.323       .  S
N1744      C1754   1.375       .  A
N1745      N1746   1.312       .  A
N1745      N1747   1.320       .  A
N1745     Mn1752   2.134       .  S
N1746      C1755   1.332       .  A
N1747      N1748   1.340       .  A
N1747     Mn1751   2.332       .  S
N1748      C1755   1.377       .  A
N1749      N1750   1.312       .  A
N1749     Mn1752   2.137       .  S
N1750      C1754   1.332       .  A
Mn1751    Cl1753   2.577       .  S
Mn1752    Cl1753   2.504       .  S
C1754      C2203   1.459       .  S
C1755      C2172   1.462       .  S
N1756      N1757   1.338       .  A
N1756      N1762   1.321       .  A
N1756     Mn1785   2.323       .  S
N1757      C1764   1.374       .  A
N1758      N1760   1.320       .  A
N1758      N1759   1.312       .  A
N1758     Mn1774   2.139       .  S
N1759      C1765   1.332       .  A
N1760      N1761   1.339       .  A
N1760     Mn1785   2.321       .  S
N1761      C1765   1.375       .  A
N1762      N1763   1.314       .  A
N1762     Mn1774   2.149       .  S
N1763      C1764   1.335       .  A
C1764      C2530   1.461       .  S
C1765      C2167   1.459       .  S
N1766      N1772   1.310       .  A
N1766      N1767   1.317       .  A
N1766     Mn1796   2.172       .  S
N1767      C1775   1.349       .  A
N1768      N1769   1.318       .  A
N1768      N1770   1.310       .  A
N1768     Mn1774   2.173       .  S
N1769      C1776   1.348       .  A
N1770      N1771   1.316       .  A
N1770     Mn1796   2.170       .  S
N1771      C1776   1.348       .  A
N1772      N1773   1.317       .  A
N1772     Mn1774   2.172       .  S
N1773      C1775   1.347       .  A
Mn1774    Cl1798   2.510       .  S
C1775      C2220   1.416       .  S
C1776      C2186   1.417       .  S
N1777      N1778   1.340       .  A
N1777      N1783   1.320       .  A
N1777     Mn1785   2.332       .  S
N1778      C1786   1.377       .  A
N1779      N1781   1.320       .  A
N1779      N1780   1.313       .  A
N1779     Mn1797   2.140       .  S
N1780      C1787   1.333       .  A
N1781      N1782   1.339       .  A
N1781     Mn1785   2.328       .  S
N1782      C1787   1.375       .  A
N1783      N1784   1.310       .  A
N1783     Mn1797   2.128       .  S
N1784      C1786   1.330       .  A
Mn1785    Cl1798   2.571       .  S
C1786      C2175   1.458       .  S
C1787      C2503   1.462       .  S
N1788      N1789   1.316       .  A
N1788      N1794   1.310       .  A
N1788     Mn1796   2.173       .  S
N1789      C1799   1.348       .  A
N1790      N1791   1.318       .  A
N1790      N1792   1.309       .  A
N1790     Mn1797   2.171       .  S
N1791      C1800   1.347       .  A
N1792      N1793   1.316       .  A
N1792     Mn1796   2.169       .  S
N1793      C1800   1.348       .  A
N1794      N1795   1.318       .  A
N1794     Mn1797   2.166       .  S
N1795      C1799   1.347       .  A
Mn1796    Cl1798   2.571       .  S
Mn1797    Cl1798   2.515       .  S
C1799      C2180   1.416       .  S
C1800      C2169   1.416       .  S
N1801      N1802   1.316       .  A
N1801      N1807   1.310       .  A
N1801     Mn1830   2.167       .  S
N1802      C1809   1.347       .  A
N1803      N1805   1.309       .  A
N1803      N1804   1.317       .  A
N1803     Mn1819   2.168       .  S
N1804      C1810   1.346       .  A
N1805      N1806   1.317       .  A
N1805     Mn1830   2.173       .  S
N1806      C1810   1.350       .  A
N1807      N1808   1.319       .  A
N1807     Mn1819   2.177       .  S
N1808      C1809   1.349       .  A
C1809      C2275   1.418       .  S
C1810      C2222   1.416       .  S
N1811      N1817   1.320       .  A
N1811      N1812   1.339       .  A
N1811     Mn1841   2.325       .  S
N1812      C1820   1.376       .  A
N1813      N1814   1.312       .  A
N1813      N1815   1.321       .  A
N1813     Mn1819   2.141       .  S
N1814      C1821   1.333       .  A
N1815      N1816   1.338       .  A
N1815     Mn1841   2.324       .  S
N1816      C1821   1.374       .  A
N1817      N1818   1.312       .  A
N1817     Mn1819   2.139       .  S
N1818      C1820   1.332       .  A
Mn1819    Cl1843   2.508       .  S
C1820      C2214   1.459       .  S
C1821      C2462   1.458       .  S
N1822      N1823   1.316       .  A
N1822      N1828   1.309       .  A
N1822     Mn1830   2.169       .  S
N1823      C1831   1.349       .  A
N1824      N1826   1.310       .  A
N1824      N1825   1.319       .  A
N1824     Mn1842   2.170       .  S
N1825      C1832   1.348       .  A
N1826      N1827   1.316       .  A
N1826     Mn1830   2.171       .  S
N1827      C1832   1.348       .  A
N1828      N1829   1.318       .  A
N1828     Mn1842   2.169       .  S
N1829      C1831   1.347       .  A
Mn1830    Cl1843   2.570       .  S
C1831      C2170   1.416       .  S
C1832      C2178   1.417       .  S
N1833      N1834   1.339       .  A
N1833      N1839   1.320       .  A
N1833     Mn1841   2.328       .  S
N1834      C1844   1.375       .  A
N1835      N1836   1.311       .  A
N1835      N1837   1.320       .  A
N1835     Mn1842   2.130       .  S
N1836      C1845   1.330       .  A
N1837      N1838   1.340       .  A
N1837     Mn1841   2.336       .  S
N1838      C1845   1.378       .  A
N1839      N1840   1.312       .  A
N1839     Mn1842   2.136       .  S
N1840      C1844   1.333       .  A
Mn1841    Cl1843   2.571       .  S
Mn1842    Cl1843   2.514       .  S
C1844      C2432   1.459       .  S
C1845      C2171   1.461       .  S
N1846      N1847   1.339       .  A
N1846      N1852   1.320       .  A
N1846     Mn1875   2.330       .  S
N1847      C1854   1.376       .  A
N1848      N1850   1.319       .  A
N1848      N1849   1.311       .  A
N1848     Mn1864   2.129       .  S
N1849      C1855   1.331       .  A
N1850      N1851   1.339       .  A
N1850     Mn1875   2.329       .  S
N1851      C1855   1.375       .  A
N1852      N1853   1.312       .  A
N1852     Mn1864   2.141       .  S
N1853      C1854   1.332       .  A
C1854      C2290   1.461       .  S
C1855      C2168   1.458       .  S
N1856      N1862   1.311       .  A
N1856      N1857   1.315       .  A
N1856     Mn1886   2.173       .  S
N1857      C1865   1.347       .  A
N1858      N1859   1.317       .  A
N1858      N1860   1.309       .  A
N1858     Mn1864   2.162       .  S
N1859      C1866   1.346       .  A
N1860      N1861   1.316       .  A
N1860     Mn1886   2.176       .  S
N1861      C1866   1.349       .  A
N1862      N1863   1.319       .  A
N1862     Mn1864   2.178       .  S
N1863      C1865   1.349       .  A
Mn1864    Cl1888   2.520       .  S
C1865      C2174   1.417       .  S
C1866      C2181   1.416       .  S
N1867      N1868   1.339       .  A
N1867      N1873   1.321       .  A
N1867     Mn1875   2.331       .  S
N1868      C1876   1.376       .  A
N1869      N1871   1.319       .  A
N1869      N1870   1.313       .  A
N1869     Mn1887   2.139       .  S
N1870      C1877   1.333       .  A
N1871      N1872   1.339       .  A
N1871     Mn1875   2.323       .  S
N1872      C1877   1.375       .  A
N1873      N1874   1.314       .  A
N1873     Mn1887   2.148       .  S
N1874      C1876   1.335       .  A
Mn1875    Cl1888   2.568       .  S
C1876      C2217   1.465       .  S
C1877      C2199   1.462       .  S
N1878      N1879   1.317       .  A
N1878      N1884   1.310       .  A
N1878     Mn1886   2.175       .  S
N1879      C1889   1.350       .  A
N1880      N1881   1.319       .  A
N1880      N1882   1.310       .  A
N1880     Mn1887   2.174       .  S
N1881      C1890   1.348       .  A
N1882      N1883   1.318       .  A
N1882     Mn1886   2.180       .  S
N1883      C1890   1.350       .  A
N1884      N1885   1.317       .  A
N1884     Mn1887   2.169       .  S
N1885      C1889   1.347       .  A
Mn1886    Cl1888   2.567       .  S
Mn1887    Cl1888   2.516       .  S
C1889      C2232   1.415       .  S
C1890      C2215   1.424       .  S
N1891      N1892   1.339       .  A
N1891      N1897   1.320       .  A
N1891     Mn1920   2.331       .  S
N1892      C1899   1.376       .  A
N1893      N1895   1.320       .  A
N1893      N1894   1.311       .  A
N1893     Mn1909   2.133       .  S
N1894      C1900   1.332       .  A
N1895      N1896   1.339       .  A
N1895     Mn1920   2.326       .  S
N1896      C1900   1.375       .  A
N1897      N1898   1.313       .  A
N1897     Mn1909   2.142       .  S
N1898      C1899   1.333       .  A
C1899      C2495   1.464       .  S
C1900      C2442   1.458       .  S
N1901      N1907   1.311       .  A
N1901      N1902   1.318   1_556  A
N1901     Mn1931   2.181       .  S
N1902      C1910   1.350   1_554  A
N1903      N1904   1.317       .  A
N1903      N1905   1.311       .  A
N1903     Mn1909   2.164       .  S
N1904      C1911   1.346   1_556  A
N1905      N1906   1.318   1_556  A
N1905     Mn1931   2.187       .  S
N1906      C1911   1.351       .  A
N1907      N1908   1.318       .  A
N1907     Mn1909   2.171       .  S
N1908      C1910   1.347       .  A
Mn1909    Cl1933   2.515       .  S
C1910      C2264   1.420   1_556  S
C1911      C2198   1.420       .  S
N1912      N1913   1.339       .  A
N1912      N1918   1.319       .  A
N1912     Mn1920   2.329       .  S
N1913      C1921   1.376       .  A
N1914      N1916   1.320       .  A
N1914      N1915   1.313       .  A
N1914     Mn1932   2.139       .  S
N1915      C1922   1.333       .  A
N1916      N1917   1.340       .  A
N1916     Mn1920   2.335       .  S
N1917      C1922   1.377       .  A
N1918      N1919   1.313       .  A
N1918     Mn1932   2.139       .  S
N1919      C1921   1.333       .  A
Mn1920    Cl1933   2.570       .  S
C1921      C2454   1.463       .  S
C1922      C2478   1.465       .  S
N1923      N1924   1.317   1_556  A
N1923      N1929   1.311       .  A
N1923     Mn1931   2.180       .  S
N1924      C1934   1.350   1_554  A
N1925      N1926   1.317       .  A
N1925      N1927   1.311       .  A
N1925     Mn1932   2.167       .  S
N1926      C1935   1.346       .  A
N1927      N1928   1.318   1_556  A
N1927     Mn1931   2.188       .  S
N1928      C1935   1.351   1_554  A
N1929      N1930   1.317       .  A
N1929     Mn1932   2.165       .  S
N1930      C1934   1.346       .  A
Mn1931    Cl1933   2.571       .  S
Mn1932    Cl1933   2.516       .  S
C1934      C2165   1.418   1_556  S
C1935      C2284   1.420   1_556  S
N1936      N1937   1.316   1_565  A
N1936      N1942   1.310       .  A
N1936     Mn1965   2.172       .  S
N1937      C1944   1.349   1_545  A
N1938      N1940   1.310       .  A
N1938      N1939   1.317       .  A
N1938     Mn1954   2.167       .  S
N1939      C1945   1.347       .  A
N1940      N1941   1.317   1_565  A
N1940     Mn1965   2.177       .  S
N1941      C1945   1.350   1_545  A
N1942      N1943   1.317       .  A
N1942     Mn1954   2.170       .  S
N1943      C1944   1.347       .  A
C1944      C2207   1.416   1_565  S
C1945      C2327   1.417   1_565  S
N1946      N1952   1.320       .  A
N1946      N1947   1.339       .  A
N1946     Mn1976   2.329       .  S
N1947      C1955   1.376       .  A
N1948      N1949   1.313       .  A
N1948      N1950   1.320       .  A
N1948     Mn1954   2.140       .  S
N1949      C1956   1.334       .  A
N1950      N1951   1.338       .  A
N1950     Mn1976   2.324       .  S
N1951      C1956   1.374       .  A
N1952      N1953   1.313       .  A
N1952     Mn1954   2.140       .  S
N1953      C1955   1.333       .  A
Mn1954    Cl1978   2.512       .  S
C1955      C2356   1.462       .  S
C1956      C2544   1.460       .  S
N1957      N1958   1.316   1_565  A
N1957      N1963   1.310       .  A
N1957     Mn1965   2.172       .  S
N1958      C1966   1.348   1_545  A
N1959      N1961   1.310       .  A
N1959      N1960   1.318       .  A
N1959     Mn1977   2.167       .  S
N1960      C1967   1.346       .  A
N1961      N1962   1.317   1_565  A
N1961     Mn1965   2.177       .  S
N1962      C1967   1.349   1_545  A
N1963      N1964   1.318       .  A
N1963     Mn1977   2.168       .  S
N1964      C1966   1.347       .  A
Mn1965    Cl1978   2.569       .  S
C1966      C2163   1.415   1_565  S
C1967      C2268   1.418   1_565  S
N1968      N1969   1.338       .  A
N1968      N1974   1.320       .  A
N1968     Mn1976   2.324       .  S
N1969      C1979   1.374       .  A
N1970      N1971   1.313       .  A
N1970      N1972   1.320       .  A
N1970     Mn1977   2.136       .  S
N1971      C1980   1.332       .  A
N1972      N1973   1.340       .  A
N1972     Mn1976   2.337       .  S
N1973      C1980   1.377       .  A
N1974      N1975   1.312       .  A
N1974     Mn1977   2.140       .  S
N1975      C1979   1.333       .  A
Mn1976    Cl1978   2.569       .  S
Mn1977    Cl1978   2.515       .  S
C1979      C2528   1.459       .  S
C1980      C2333   1.465       .  S
N1981      N1982   1.318   1_556  A
N1981      N1987   1.311       .  A
N1981     Mn2010   2.191       .  S
N1982      C1989   1.351   1_554  A
N1983      N1985   1.310       .  A
N1983      N1984   1.317       .  A
N1983     Mn1999   2.164       .  S
N1984      C1990   1.345       .  A
N1985      N1986   1.318   1_556  A
N1985     Mn2010   2.183       .  S
N1986      C1990   1.351   1_554  A
N1987      N1988   1.317       .  A
N1987     Mn1999   2.163       .  S
N1988      C1989   1.345       .  A
C1989      C2300   1.420   1_556  S
C1990      C2161   1.419   1_556  S
N1991      N1997   1.320       .  A
N1991      N1992   1.340       .  A
N1991     Mn2021   2.339       .  S
N1992      C2000   1.378       .  A
N1993      N1994   1.313       .  A
N1993      N1995   1.319       .  A
N1993     Mn1999   2.139       .  S
N1994      C2001   1.333       .  A
N1995      N1996   1.339       .  A
N1995     Mn2021   2.330       .  S
N1996      C2001   1.376       .  A
N1997      N1998   1.312       .  A
N1997     Mn1999   2.133       .  S
N1998      C2000   1.332       .  A
Mn1999    Cl2023   2.516       .  S
C2000      C2406   1.465       .  S
C2001      C2526   1.464       .  S
N2002      N2003   1.319   1_556  A
N2002      N2008   1.311       .  A
N2002     Mn2010   2.191       .  S
N2003      C2011   1.352   1_554  A
N2004      N2006   1.310       .  A
N2004      N2005   1.317       .  A
N2004     Mn2022   2.168       .  S
N2005      C2012   1.346       .  A
N2006      N2007   1.317   1_556  A
N2006     Mn2010   2.181       .  S
N2007      C2012   1.350   1_554  A
N2008      N2009   1.316       .  A
N2008     Mn2022   2.161       .  S
N2009      C2011   1.345       .  A
Mn2010    Cl2023   2.572       .  S
C2011      C2245   1.420   1_556  S
C2012      C2202   1.419   1_556  S
N2013      N2014   1.339       .  A
N2013      N2019   1.320       .  A
N2013     Mn2021   2.332       .  S
N2014      C2024   1.376       .  A
N2015      N2016   1.313       .  A
N2015      N2017   1.320       .  A
N2015     Mn2022   2.139       .  S
N2016      C2025   1.333       .  A
N2017      N2018   1.340       .  A
N2017     Mn2021   2.333       .  S
N2018      C2025   1.377       .  A
N2019      N2020   1.312       .  A
N2019     Mn2022   2.135       .  S
N2020      C2024   1.332       .  A
Mn2021    Cl2023   2.570       .  S
Mn2022    Cl2023   2.515       .  S
C2024      C2514   1.462       .  S
C2025      C2423   1.464       .  S
N2026      N2027   1.340       .  A
N2026      N2032   1.320       .  A
N2026     Mn2055   2.333       .  S
N2027      C2034   1.377       .  A
N2028      N2030   1.320       .  A
N2028      N2029   1.314       .  A
N2028     Mn2044   2.144       .  S
N2029      C2035   1.334       .  A
N2030      N2031   1.339       .  A
N2030     Mn2055   2.326       .  S
N2031      C2035   1.375       .  A
N2032      N2033   1.311       .  A
N2032     Mn2044   2.136       .  S
N2033      C2034   1.332       .  A
C2034      C2414   1.461       .  S
C2035      C2383   1.464       .  S
N2036      N2042   1.310       .  A
N2036      N2037   1.315       .  A
N2036     Mn2066   2.166       .  S
N2037      C2045   1.347       .  A
N2038      N2039   1.319       .  A
N2038      N2040   1.310       .  A
N2038     Mn2044   2.177       .  S
N2039      C2046   1.349       .  A
N2040      N2041   1.317       .  A
N2040     Mn2066   2.176       .  S
N2041      C2046   1.349       .  A
N2042      N2043   1.318       .  A
N2042     Mn2044   2.168       .  S
N2043      C2045   1.348       .  A
Mn2044    Cl2068   2.519       .  S
C2045      C2296   1.414   1_655  S
C2046      C2248   1.423       .  S
N2047      N2048   1.339       .  A
N2047      N2053   1.321       .  A
N2047     Mn2055   2.330       .  S
N2048      C2056   1.375       .  A
N2049      N2051   1.320       .  A
N2049      N2050   1.311       .  A
N2049     Mn2067   2.136       .  S
N2050      C2057   1.331       .  A
N2051      N2052   1.339       .  A
N2051     Mn2055   2.327       .  S
N2052      C2057   1.375       .  A
N2053      N2054   1.313       .  A
N2053     Mn2067   2.147       .  S
N2054      C2056   1.334       .  A
Mn2055    Cl2068   2.569       .  S
C2056      C2395   1.462       .  S
C2057      C2407   1.458       .  S
N2058      N2059   1.314       .  A
N2058      N2064   1.310       .  A
N2058     Mn2066   2.163       .  S
N2059      C2069   1.346       .  A
N2060      N2061   1.319       .  A
N2060      N2062   1.310       .  A
N2060     Mn2067   2.176       .  S
N2061      C2070   1.349       .  A
N2062      N2063   1.317       .  A
N2062     Mn2066   2.178       .  S
N2063      C2070   1.349       .  A
N2064      N2065   1.320       .  A
N2064     Mn2067   2.184       .  S
N2065      C2069   1.351       .  A
Mn2066    Cl2068   2.566       .  S
Mn2067    Cl2068   2.519       .  S
C2069      C2162   1.418       .  S
C2070      C2303   1.424   1_655  S
N2071      N2072   1.338       .  A
N2071      N2077   1.320       .  A
N2071     Mn2100   2.320       .  S
N2072      C2079   1.374       .  A
N2073      N2075   1.321       .  A
N2073      N2074   1.314       .  A
N2073     Mn2089   2.147       .  S
N2074      C2080   1.334       .  A
N2075      N2076   1.339       .  A
N2075     Mn2100   2.333       .  S
N2076      C2080   1.376       .  A
N2077      N2078   1.312       .  A
N2077     Mn2089   2.137       .  S
N2078      C2079   1.333       .  A
C2079      C2472   1.457       .  S
C2080      C2344   1.466       .  S
N2081      N2087   1.309       .  A
N2081      N2082   1.317   1_655  A
N2081     Mn2111   2.174       .  S
N2082      C2090   1.349   1_455  A
N2083      N2084   1.318       .  A
N2083      N2085   1.310       .  A
N2083     Mn2089   2.177       .  S
N2084      C2091   1.349       .  A
N2085      N2086   1.316   1_655  A
N2085     Mn2111   2.169       .  S
N2086      C2091   1.348   1_455  A
N2087      N2088   1.317       .  A
N2087     Mn2089   2.167       .  S
N2088      C2090   1.347       .  A
Mn2089    Cl2113   2.513       .  S
C2090      C2325   1.417   1_655  S
C2091      C2256   1.417   1_655  S
N2092      N2093   1.340       .  A
N2092      N2098   1.320       .  A
N2092     Mn2100   2.335       .  S
N2093      C2101   1.377       .  A
N2094      N2096   1.320       .  A
N2094      N2095   1.312       .  A
N2094     Mn2112   2.139       .  S
N2095      C2102   1.333       .  A
N2096      N2097   1.338       .  A
N2096     Mn2100   2.325       .  S
N2097      C2102   1.374       .  A
N2098      N2099   1.313       .  A
N2098     Mn2112   2.137       .  S
N2099      C2101   1.332       .  A
Mn2100    Cl2113   2.569       .  S
C2101      C2336   1.465       .  S
C2102      C2456   1.458       .  S
N2103      N2104   1.316       .  A
N2103      N2109   1.309       .  A
N2103     Mn2111   2.171       .  S
N2104      C2114   1.348       .  A
N2105      N2106   1.318       .  A
N2105      N2107   1.310       .  A
N2105     Mn2112   2.168       .  S
N2106      C2115   1.347       .  A
N2107      N2108   1.316       .  A
N2107     Mn2111   2.172       .  S
N2108      C2115   1.348       .  A
N2109      N2110   1.318       .  A
N2109     Mn2112   2.170       .  S
N2110      C2114   1.347       .  A
Mn2111    Cl2113   2.569       .  S
Mn2112    Cl2113   2.516       .  S
C2114      C2271   1.417   1_655  S
C2115      C2164   1.415   1_655  S
N2116      N2117   1.317   1_565  A
N2116      N2122   1.310       .  A
N2116     Mn2145   2.176       .  S
N2117      C2124   1.349   1_545  A
N2118      N2120   1.310       .  A
N2118      N2119   1.317       .  A
N2118     Mn2134   2.169       .  S
N2119      C2125   1.347       .  A
N2120      N2121   1.316   1_565  A
N2120     Mn2145   2.169       .  S
N2121      C2125   1.348   1_545  A
N2122      N2123   1.318       .  A
N2122     Mn2134   2.168       .  S
N2123      C2124   1.347       .  A
C2124      C2195   1.419   1_565  S
C2125      C2316   1.414   1_565  S
N2126      N2132   1.319       .  A
N2126      N2127   1.339       .  A
N2126     Mn2156   2.325       .  S
N2127      C2135   1.375       .  A
N2128      N2129   1.313       .  A
N2128      N2130   1.320       .  A
N2128     Mn2134   2.143       .  S
N2129      C2136   1.334       .  A
N2130      N2131   1.339       .  A
N2130     Mn2156   2.332       .  S
N2131      C2136   1.376       .  A
N2132      N2133   1.313       .  A
N2132     Mn2134   2.138       .  S
N2133      C2135   1.333       .  A
Mn2134    Cl2158   2.518       .  S
C2135      C2370   1.462       .  S
C2136      C2486   1.464       .  S
N2137      N2138   1.316   1_565  A
N2137      N2143   1.310       .  A
N2137     Mn2145   2.174       .  S
N2138      C2146   1.348   1_545  A
N2139      N2141   1.310       .  A
N2139      N2140   1.319       .  A
N2139     Mn2157   2.177       .  S
N2140      C2147   1.349       .  A
N2141      N2142   1.315   1_565  A
N2141     Mn2145   2.168       .  S
N2142      C2147   1.347   1_545  A
N2143      N2144   1.319       .  A
N2143     Mn2157   2.177       .  S
N2144      C2146   1.349       .  A
Mn2145    Cl2158   2.566       .  S
C2146      C2286   1.421   1_565  S
C2147      C2166   1.417   1_565  S
N2148      N2149   1.339       .  A
N2148      N2154   1.320       .  A
N2148     Mn2156   2.328       .  S
N2149      C2159   1.375       .  A
N2150      N2151   1.312       .  A
N2150      N2152   1.321       .  A
N2150     Mn2157   2.142       .  S
N2151      C2160   1.333       .  A
N2152      N2153   1.339       .  A
N2152     Mn2156   2.330       .  S
N2153      C2160   1.375       .  A
N2154      N2155   1.312       .  A
N2154     Mn2157   2.139       .  S
N2155      C2159   1.332       .  A
Mn2156    Cl2158   2.567       .  S
Mn2157    Cl2158   2.520       .  S
C2159      C2480   1.461       .  S
C2160      C2400   1.461       .  S
C2161      C2162   1.195   1_455  T
C2163      C2164   1.192       .  T
C2165      C2166   1.194       .  T
C2167      C2168   1.223       .  T
C2169      C2170   1.193       .  T
C2171      C2172   1.225       .  T
C2173      C2174   1.194       .  T
C2175      C2176   1.223       .  T
C2177      C2178   1.194       .  T
C2179      C2180   1.193       .  T
C2181      C2182   1.193       .  T
C2183      C2184   1.194       .  T
C2185      C2186   1.195       .  T
C2187      C2188   1.194       .  T
C2189      C2190   1.195       .  T
C2191      C2192   1.193       .  T
C2193      C2194   1.224       .  T
C2195      C2196   1.195       .  T
C2197      C2198   1.195       .  T
C2199      C2200   1.224       .  T
C2201      C2202   1.195       .  T
C2203      C2204   1.223       .  T
C2205      C2206   1.221       .  T
C2207      C2208   1.193       .  T
C2209      C2210   1.192       .  T
C2211      C2212   1.195       .  T
C2213      C2214   1.223       .  T
C2215      C2216   1.198       .  T
C2217      C2218   1.226       .  T
C2219      C2220   1.193       .  T
C2221      C2222   1.194       .  T
C2223      C2224   1.224       .  T
C2225      C2226   1.194       .  T
C2227      C2228   1.225       .  T
C2229      C2230   1.223       .  T
C2231      C2232   1.193       .  T
C2233      C2234   1.193       .  T
C2235      C2236   1.193       .  T
C2237      C2238   1.194       .  T
C2239      C2240   1.198       .  T
C2241      C2242   1.225       .  T
C2243      C2244   1.227       .  T
C2245      C2246   1.196       .  T
C2247      C2248   1.197   1_455  T
C2249      C2250   1.224       .  T
C2251      C2252   1.193       .  T
C2253      C2254   1.221       .  T
C2255      C2256   1.194       .  T
C2257      C2258   1.225       .  T
C2259      C2260   1.197       .  T
C2261      C2262   1.224       .  T
C2263      C2264   1.196       .  T
C2265      C2266   1.195       .  T
C2267      C2268   1.194       .  T
C2269      C2270   1.194       .  T
C2271      C2272   1.194       .  T
C2273      C2274   1.191       .  T
C2275      C2276   1.195       .  T
C2277      C2278   1.194       .  T
C2279      C2280   1.195       .  T
C2281      C2282   1.196       .  T
C2283      C2284   1.196       .  T
C2285      C2286   1.197       .  T
C2287      C2288   1.223       .  T
C2289      C2290   1.224       .  T
C2291      C2292   1.193       .  T
C2293      C2294   1.193       .  T
C2295      C2296   1.192       .  T
C2297      C2298   1.192       .  T
C2299      C2300   1.195       .  T
C2301      C2302   1.195       .  T
C2303      C2304   1.199       .  T
C2305      C2306   1.226       .  T
C2307      C2308   1.222       .  T
C2309      C2310   1.193       .  T
C2311      C2312   1.193       .  T
C2313      C2314   1.194       .  T
C2315      C2316   1.192       .  T
C2317      C2318   1.223       .  T
C2319      C2320   1.224       .  T
C2321      C2322   1.195       .  T
C2323      C2324   1.195       .  T
C2325      C2326   1.194       .  T
C2327      C2328   1.194       .  T
C2329      C2330   1.227       .  T
C2331      C2332   1.226       .  T
C2333      C2334   1.227   1_455  T
C2335      C2336   1.226   1_565  T
C2337      C2338   1.228       .  T
C2339      C2340   1.226       .  T
C2341      C2342   1.228   1_455  T
C2343      C2344   1.226       .  T
C2345      C2346   1.195   1_565  T
C2347      C2348   1.226       .  T
C2349      C2350   1.226       .  T
C2351      C2352   1.228   1_545  T
C2353      C2354   1.195   1_565  T
C2355      C2356   1.224       .  T
C2357      C2358   1.194       .  T
C2359      C2360   1.194       .  T
C2361      C2362   1.223       .  T
C2363      C2364   1.226       .  T
C2365      C2366   1.222   1_545  T
C2367      C2368   1.198       .  T
C2369      C2370   1.224       .  T
C2371      C2372   1.225       .  T
C2373      C2374   1.194       .  T
C2375      C2376   1.195       .  T
C2377      C2378   1.224       .  T
C2379      C2380   1.221   1_655  T
C2381      C2382   1.199       .  T
C2383      C2384   1.225       .  T
C2385      C2386   1.223   1_565  T
C2387      C2388   1.222   1_455  T
C2389      C2390   1.194       .  T
C2391      C2392   1.194       .  T
C2393      C2394   1.194       .  T
C2395      C2396   1.224       .  T
C2397      C2398   1.193       .  T
C2399      C2400   1.224       .  T
C2401      C2402   1.222       .  T
C2403      C2404   1.224       .  T
C2405      C2406   1.226   1_655  T
C2407      C2408   1.222   1_554  T
C2409      C2410   1.224       .  T
C2411      C2412   1.224       .  T
C2413      C2414   1.224       .  T
C2415      C2416   1.193   1_554  T
C2417      C2418   1.225   1_655  T
C2419      C2420   1.223       .  T
C2421      C2422   1.222       .  T
C2423      C2424   1.226       .  T
C2425      C2426   1.192       .  T
C2427      C2428   1.225   1_556  T
C2429      C2430   1.193   1_554  T
C2431      C2432   1.223       .  T
C2433      C2434   1.194       .  T
C2435      C2436   1.221       .  T
C2437      C2438   1.223   1_556  T
C2439      C2440   1.193   1_556  T
C2441      C2442   1.222       .  T
C2443      C2444   1.223   1_455  T
C2445      C2446   1.220   1_556  T
C2447      C2448   1.193   1_556  T
C2449      C2450   1.195       .  T
C2451      C2452   1.190       .  T
C2453      C2454   1.225       .  T
C2455      C2456   1.222       .  T
C2457      C2458   1.222       .  T
C2459      C2460   1.194       .  T
C2461      C2462   1.222       .  T
C2463      C2464   1.194       .  T
C2465      C2466   1.224   1_655  T
C2467      C2468   1.194       .  T
C2469      C2470   1.192       .  T
C2471      C2472   1.221       .  T
C2473      C2474   1.224       .  T
C2475      C2476   1.224       .  T
C2477      C2478   1.226   1_565  T
C2479      C2480   1.224   1_556  T
C2481      C2482   1.226       .  T
C2483      C2484   1.225       .  T
C2485      C2486   1.225       .  T
C2487      C2488   1.193   1_554  T
C2489      C2490   1.224   1_565  T
C2491      C2492   1.223       .  T
C2493      C2494   1.223       .  T
C2495      C2496   1.226       .  T
C2497      C2498   1.192   1_545  T
C2499      C2500   1.226   1_554  T
C2501      C2502   1.193   1_564  T
C2503      C2504   1.224       .  T
C2505      C2506   1.194       .  T
C2507      C2508   1.222       .  T
C2509      C2510   1.223   1_554  T
C2511      C2512   1.194   1_556  T
C2513      C2514   1.225       .  T
C2515      C2516   1.223   1_565  T
C2517      C2518   1.222   1_556  T
C2519      C2520   1.193   1_554  T
C2521      C2522   1.194       .  T
C2523      C2524   1.191       .  T
C2525      C2526   1.226       .  T
C2527      C2528   1.223       .  T
C2529      C2530   1.223       .  T
C2531      C2532   1.221       .  T
C2533      C2534   1.195       .  T
C2535      C2536   1.195       .  T
C2537      C2538   1.225   1_565  T
C2539      C2540   1.195       .  T
C2541      C2542   1.194       .  T
C2543      C2544   1.223       .  T
