geometry optimzed in LAMMPS
_audit_creation_date              2020-12-01 
_audit_creation_method            'lammps2cif' 
_symmetry_space_group_name_H-M    'P1' 
_symmetry_Int_Tables_number       1 
_symmetry_cell_setting            triclinic 
loop_ 
_symmetry_equiv_pos_as_xyz 
  x,y,z 
_cell_length_a                    32.13866654 
_cell_length_b                    31.97076301303266 
_cell_length_c                    31.880725217284567 
_cell_angle_alpha                 90.13626725274541 
_cell_angle_beta                  89.60358370728184 
_cell_angle_gamma                 89.86416758165686 
loop_ 
_atom_site_label 
_atom_site_type_symbol 
_atom_site_fract_x 
_atom_site_fract_y 
_atom_site_fract_z 
_atom_site_charge 
C1          C  0.10151722  0.07871678  0.08673760     0.86000
C2          C  0.13006641  0.05366995  0.11732628    -0.54200
C3          C  0.15528449  0.07796029  0.14232766     0.08900
C4          C  0.15003614  0.12487689  0.13516402     0.19900
C5          C  0.07852963  0.11033429  0.11646517    -0.54900
C6          C  0.10384333  0.13344316  0.14181301     0.09000
C7          C  0.13269347  0.10803459  0.06270177    -0.54500
C8          C  0.15810939  0.13194309  0.08818951     0.09600
H9          H  0.12929967  0.01986123  0.11998963     0.14100
H10         H  0.17015275  0.14440536  0.15557096    -0.00100
H11         H  0.04540827  0.11588220  0.11758655     0.14400
H12         H  0.13318596  0.11103298  0.02882074     0.14200
C13         C  0.87514947  0.09136626  0.85722686     0.86000
C14         C  0.84905983  0.12019061  0.88706056    -0.54200
C15         C  0.82588353  0.15053064  0.86741995     0.08900
C16         C  0.82977412  0.14934976  0.81961788     0.19900
C17         C  0.84100865  0.07434286  0.82675806    -0.54900
C18         C  0.81770494  0.10465320  0.80726395     0.09000
C19         C  0.90005587  0.12286149  0.82928289    -0.54500
C20         C  0.87633283  0.15317701  0.81003272     0.09600
H21         H  0.84905245  0.11677526  0.92093666     0.14100
H22         H  0.81057988  0.17344824  0.80369303    -0.00100
H23         H  0.83282796  0.04214233  0.82217478     0.14400
H24         H  0.93365372  0.12156878  0.82576694     0.14200
C25         C  0.87594690  0.85910511  0.08242824     0.86000
C26         C  0.89501521  0.82307034  0.10978523    -0.54200
C27         C  0.86659725  0.80101785  0.13337417     0.08900
C28         C  0.82173912  0.81549954  0.12779601     0.19900
C29         C  0.84193575  0.83499924  0.05678841    -0.54900
C30         C  0.81372784  0.81228111  0.08049024     0.09000
C31         C  0.85011459  0.88489544  0.11518955    -0.54500
C32         C  0.82234986  0.86211000  0.13899682     0.09600
H33         H  0.92714444  0.81408491  0.11110383     0.14100
H34         H  0.79922109  0.79728800  0.14704655    -0.00100
H35         H  0.84114963  0.83504507  0.02276036     0.14400
H36         H  0.85440006  0.91825615  0.11980220     0.14200
C37         C  0.09082490  0.86303614  0.85198200     0.86000
C38         C  0.12332630  0.88423519  0.82186843    -0.54200
C39         C  0.14517793  0.85693041  0.79637841     0.08900
C40         C  0.13372605  0.81090912  0.80353984     0.19900
C41         C  0.06444905  0.83622717  0.82124326    -0.54900
C42         C  0.08665647  0.80837021  0.79687802     0.09000
C43         C  0.11826691  0.83065509  0.87583712    -0.54500
C44         C  0.14033865  0.80349012  0.85048698     0.09600
H45         H  0.12929216  0.91744373  0.82009802     0.14100
H46         H  0.15191490  0.78903288  0.78335660    -0.00100
H47         H  0.03089982  0.83907478  0.81897573     0.14400
H48         H  0.12085514  0.83006957  0.90974725     0.14200
C49         C  0.98447466  0.97763847  0.96957800    -0.03000
C50         C  0.66002724  0.69491095  0.56791070     0.79800
N51         N  0.68586740  0.68468457  0.53518565    -0.78600
C52         C  0.71005978  0.71463941  0.51705270     0.82200
N53         N  0.70859115  0.75364713  0.53214646    -0.78500
C54         C  0.68702594  0.76370235  0.56682687     0.82300
N55         N  0.66229435  0.73422288  0.58539973    -0.80200
C56         C  0.56658877  0.69334009  0.67228740     0.79800
N57         N  0.57431321  0.73466525  0.66269983    -0.78600
C58         C  0.56561920  0.76514929  0.69167463     0.82200
N59         N  0.54931749  0.75441688  0.72864363    -0.78500
C60         C  0.54124673  0.71480142  0.73893618     0.82300
N61         N  0.55039396  0.68340465  0.71106054    -0.80200
C62         C  0.37081423  0.66633621  0.28779860     0.79800
N63         N  0.38259559  0.70729315  0.29401456    -0.78600
C64         C  0.39051475  0.73224154  0.25998239     0.82200
N65         N  0.38649264  0.71632984  0.22147770    -0.78500
C66         C  0.37530764  0.67674064  0.21460236     0.82300
N67         N  0.36774058  0.65097397  0.24771458    -0.80200
C68         C  0.66182455  0.38634285  0.27512321     0.79800
N69         N  0.64550120  0.38581484  0.23531452    -0.78600
C70         C  0.67018612  0.39669694  0.20197234     0.82200
N71         N  0.70977296  0.40754482  0.20841582    -0.78500
C72         C  0.72661408  0.40747354  0.24655163     0.82300
N73         N  0.70306058  0.39615579  0.28046620    -0.80200
O74         O  0.52883582  0.69439281  0.00504178    -0.74900
O75         O  0.41720663  0.68742746  0.95601030    -0.74900
O76         O  0.49595827  0.69584207  0.92781689    -0.75000
O77         O  0.45012668  0.67774916  0.03378914    -0.75000
O78         O  0.44102718  0.74593595  0.04528253    -0.75000
O79         O  0.48724353  0.76485003  0.93279023    -0.74900
O80         O  0.41110232  0.75607375  0.96708230    -0.74900
O81         O  0.51810344  0.76295271  0.01229043    -0.75000
Ni82       Ni  0.47330102  0.68636254  0.98062276     1.25400
Ni83       Ni  0.46423280  0.75995686  0.98989303     1.25400
C84         C  0.54189410  0.73138511  0.01489966     0.87300
C85         C  0.39637920  0.72203904  0.95340936     0.87200
C86         C  0.49831061  0.73189536  0.91176552     0.87200
C87         C  0.43770305  0.70738695  0.05712434     0.87400
O88         O  0.68641120  0.53447283  0.98686330    -0.74900
O89         O  0.68492322  0.42512848  0.93030538    -0.74900
O90         O  0.66951519  0.45362001  0.01102330    -0.75000
O91         O  0.69277353  0.50484845  0.90852908    -0.75000
O92         O  0.76131901  0.49810616  0.91708712    -0.75000
O93         O  0.73667912  0.44600931  0.02589575    -0.74900
O94         O  0.75202838  0.41951338  0.94580643    -0.74900
O95         O  0.75407745  0.52432932  0.99811971    -0.75000
Ni96       Ni  0.68082808  0.47953291  0.95927323     1.25400
Ni97       Ni  0.75342466  0.47160844  0.97239067     1.25400
C98         C  0.72223458  0.54767831  0.99971390     0.87300
C99         C  0.72058227  0.40657509  0.92590494     0.87200
C100        C  0.69781571  0.44234746  0.03612785     0.87200
C101        C  0.72949731  0.50916781  0.89496936     0.87400
C102        C  0.78120043  0.78271463  0.06362039     0.79800
N103        N  0.79230369  0.74265862  0.05184264    -0.78600
C104        C  0.76206111  0.71463349  0.04086612     0.82200
N105        N  0.72215674  0.72611754  0.04245064    -0.78500
C106        C  0.71019623  0.76429483  0.05450471     0.82300
N107        N  0.73958336  0.79335577  0.06528905    -0.80200
C108        C  0.67567685  0.59845831  0.67008977     0.79800
N109        N  0.66770993  0.58744863  0.71096077    -0.78600
C110        C  0.70002917  0.58365391  0.73830187     0.82200
N111        N  0.73896912  0.58968955  0.72483446    -0.78500
C112        C  0.74794782  0.59897508  0.68492226     0.82300
N113        N  0.71621101  0.60342371  0.65685526    -0.80200
C114        C  0.26775830  0.67518197  0.39147282     0.79800
N115        N  0.23351915  0.66174947  0.41360342    -0.78600
C116        C  0.20254258  0.68955802  0.42311952     0.82200
N117        N  0.20568860  0.72921583  0.41038146    -0.78500
C118        C  0.23820116  0.74341523  0.38822973     0.82300
N119        N  0.26976451  0.71617464  0.37838371    -0.80200
O120        O  0.96516692  0.70315246  0.54191571    -0.74900
O121        O  0.94608668  0.69183724  0.42118181    -0.74900
O122        O  0.01356139  0.68859711  0.47247407    -0.75000
O123        O  0.89951021  0.69823857  0.49025111    -0.75000
O124        O  0.90021503  0.76735598  0.48164734    -0.75000
O125        O  0.02117419  0.75767008  0.46688263    -0.74900
O126        O  0.95387927  0.76099418  0.41630396    -0.74900
O127        O  0.96743199  0.77184486  0.53183545    -0.75000
Ni128      Ni  0.95622071  0.69293922  0.48173943     1.25400
Ni129      Ni  0.96101843  0.76698558  0.47395894     1.25400
C130        C  0.96848156  0.74087929  0.55640642     0.87300
C131        C  0.94562230  0.72605698  0.39965713     0.87200
C132        C  0.03650611  0.72019659  0.46650288     0.87200
C133        C  0.88054274  0.73283793  0.48894835     0.87400
O134        O  0.01144749  0.53425228  0.67095367    -0.74900
O135        O  0.94348471  0.43471036  0.69426679    -0.74900
O136        O  0.92750828  0.51639817  0.67277360    -0.75000
O137        O  0.02490444  0.45286288  0.68504329    -0.75000
O138        O  0.02929994  0.46978323  0.75277616    -0.75000
O139        O  0.92493237  0.53143583  0.74089875    -0.74900
O140        O  0.94660393  0.45156247  0.76188771    -0.74900
O141        O  0.00751009  0.54878395  0.73912237    -0.75000
Ni142      Ni  0.97637248  0.48414121  0.67824241     1.25400
Ni143      Ni  0.97674906  0.50083888  0.75110965     1.25400
C144        C  0.02263813  0.55631208  0.70307345     0.87300
C145        C  0.93639561  0.42596083  0.73330713     0.87200
C146        C  0.90961726  0.53436067  0.70363246     0.87200
C147        C  0.04455570  0.45257152  0.71930737     0.87400
C148        C  0.06765026  0.77766420  0.76716385     0.79800
N149        N  0.03143771  0.78731772  0.74674233    -0.78600
C150        C  0.01370045  0.75842406  0.72090022     0.82200
N151        N  0.03294535  0.72186786  0.71457807    -0.78500
C152        C  0.06953112  0.71233934  0.73181139     0.82300
N153        N  0.08727508  0.74013451  0.75891839    -0.80200
C154        C  0.27711053  0.37020906  0.69051194     0.79800
N155        N  0.24089252  0.38676385  0.67515742    -0.78600
C156        C  0.20872549  0.39489859  0.70204796     0.82200
N157        N  0.21281734  0.38712998  0.74294676    -0.78500
C158        C  0.24782783  0.37158135  0.75922111     0.82300
N159        N  0.28071205  0.36297625  0.73292925    -0.80200
C160        C  0.68578147  0.28730438  0.37500679     0.79800
N161        N  0.67862197  0.24528809  0.36953126    -0.78600
C162        C  0.71040743  0.21722822  0.37428371     0.82200
N163        N  0.74820414  0.23127782  0.38441587    -0.78500
C164        C  0.75577156  0.27186590  0.39148646     0.82300
N165        N  0.72444915  0.30052874  0.38728629    -0.80200
O166        O  0.69437714  0.01033094  0.52621765    -0.74900
O167        O  0.71866393  0.95094732  0.42117674    -0.74900
O168        O  0.70369247  0.93050535  0.50245851    -0.75000
O169        O  0.70180652  0.03135115  0.44380431    -0.75000
O170        O  0.77012946  0.04017945  0.45103387    -0.75000
O171        O  0.77042524  0.93717750  0.51881178    -0.74900
O172        O  0.78604390  0.95744308  0.43557180    -0.74900
O173        O  0.76270294  0.01979964  0.53320910    -0.75000
Ni174      Ni  0.70231786  0.98052827  0.47278125     1.25400
Ni175      Ni  0.77493086  0.98877698  0.48476667     1.25400
C176        C  0.72593834  0.02369344  0.54730809     0.87300
C177        C  0.75735176  0.94463953  0.41153567     0.87200
C178        C  0.73495093  0.91836318  0.52320122     0.87200
C179        C  0.73425909  0.05302286  0.43786084     0.87400
O180        O  0.53213620  0.03327777  0.71942051    -0.74900
O181        O  0.42562144  0.97634349  0.70571198    -0.74900
O182        O  0.45076219  0.05444533  0.71876430    -0.75000
O183        O  0.50779720  0.95426703  0.69864765    -0.75000
O184        O  0.51025552  0.93936142  0.76675232    -0.75000
O185        O  0.44316141  0.04078703  0.78667498    -0.74900
O186        O  0.42837452  0.95949042  0.77334679    -0.74900
O187        O  0.52660682  0.02056207  0.78790889    -0.75000
Ni188      Ni  0.47944990  0.00492545  0.70818491     1.25400
Ni189      Ni  0.47740333  0.98960339  0.78121972     1.25400
C190        C  0.54613949  0.03657654  0.75718377     0.87300
C191        C  0.40880231  0.96039549  0.73898893     0.87200
C192        C  0.43422032  0.06296931  0.75396936     0.87200
C193        C  0.51841655  0.92983481  0.72802772     0.87400
C194        C  0.78048542  0.09605443  0.78073293     0.79800
N195        N  0.74136349  0.10014020  0.79779067    -0.78600
C196        C  0.70733094  0.09575705  0.77280154     0.82200
N197        N  0.71250137  0.08660302  0.73205965    -0.78500
C198        C  0.75021267  0.08150556  0.71478709     0.82300
N199        N  0.78489285  0.08608063  0.73898644    -0.80200
C200        C  0.39132937  0.28481990  0.69331711     0.79800
N201        N  0.42546566  0.29446113  0.71729991    -0.78600
C202        C  0.43911428  0.26608161  0.74629810     0.82200
N203        N  0.41817577  0.23050020  0.75190412    -0.78500
C204        C  0.38433542  0.22065783  0.73011848     0.82300
N205        N  0.37083198  0.24761539  0.70002619    -0.80200
O206        O  0.24752799  0.52822207  0.95846480    -0.74900
O207        O  0.25162983  0.42544163  0.02572918    -0.74900
O208        O  0.25508469  0.44492954  0.94344790    -0.75000
O209        O  0.25230512  0.50937663  0.04098494    -0.75000
O210        O  0.18332313  0.50881015  0.04441483    -0.75000
O211        O  0.18623948  0.44058076  0.94131557    -0.74900
O212        O  0.18255331  0.42595872  0.02525029    -0.74900
O213        O  0.17842972  0.52322294  0.96087946    -0.75000
Ni214      Ni  0.25408482  0.47712875  0.99221262     1.25400
Ni215      Ni  0.18014208  0.47452855  0.99297986     1.25400
C216        C  0.21092299  0.54236682  0.94925649     0.87300
C217        C  0.21634285  0.40845080  0.03559935     0.87200
C218        C  0.22257429  0.43179241  0.92556421     0.87200
C219        C  0.21892556  0.52021392  0.05941920     0.87400
C220        C  0.17020075  0.77083105  0.86512395     0.79800
N221        N  0.15837718  0.72957726  0.86612262    -0.78600
C222        C  0.18762207  0.69921591  0.87270391     0.82200
N223        N  0.22735482  0.71016709  0.87830256    -0.78500
C224        C  0.23957821  0.75009148  0.87854712     0.82300
N225        N  0.21097680  0.78113660  0.87247908    -0.80200
O226        O  0.98694938  0.40404725  0.25289852    -0.74900
O227        O  0.94130913  0.51819429  0.25248936    -0.74900
O228        O  0.91129441  0.43958640  0.24743818    -0.75000
O229        O  0.01710161  0.48227134  0.26704344    -0.75000
O230        O  0.03237890  0.48422785  0.19882013    -0.75000
O231        O  0.91819835  0.44620176  0.17807453    -0.74900
O232        O  0.95708203  0.52013560  0.18441499    -0.74900
O233        O  0.99448244  0.41046619  0.18358725    -0.75000
Ni234      Ni  0.96389546  0.46092536  0.25755105     1.25400
Ni235      Ni  0.97605099  0.46537188  0.18374112     1.25400
C236        C  0.99762761  0.38905657  0.21663118     0.87300
C237        C  0.94191301  0.53741891  0.21672821     0.87200
C238        C  0.89629931  0.43705240  0.21101352     0.87200
C239        C  0.04268284  0.48970473  0.23767420     0.87400
C240        C  0.87673747  0.76820384  0.16481224     0.79800
N241        N  0.88302827  0.77960056  0.20573562    -0.78600
C242        C  0.88429811  0.74959935  0.23599424     0.82200
N243        N  0.87977587  0.70936055  0.22544908    -0.78500
C244        C  0.87502657  0.69717200  0.18557851     0.82300
N245        N  0.87400651  0.72658705  0.15453433    -0.80200
C246        C  0.26659800  0.57529038  0.29334262     0.79800
N247        N  0.23237615  0.55302811  0.30640321    -0.78600
C248        C  0.20196598  0.54395884  0.27812166     0.82200
N249        N  0.20565854  0.55697188  0.23852084    -0.78500
C250        C  0.23867232  0.57821561  0.22465971     0.82300
N251        N  0.26979650  0.58759306  0.25211483    -0.80200
O252        O  0.56269234  0.25263963  0.98174709    -0.74900
O253        O  0.44138888  0.25461682  0.99891573    -0.74900
O254        O  0.50968817  0.25172575  0.04647804    -0.75000
O255        O  0.49475505  0.26439265  0.93208452    -0.75000
O256        O  0.49163022  0.19577062  0.92104607    -0.75000
O257        O  0.51019548  0.18216286  0.04212175    -0.74900
O258        O  0.44214380  0.18538513  0.99056676    -0.74900
O259        O  0.55711885  0.18387942  0.97258876    -0.75000
Ni260      Ni  0.50202710  0.25833548  0.98972799     1.25400
Ni261      Ni  0.49992738  0.18427315  0.98117507     1.25400
C262        C  0.57951774  0.21621578  0.97581171     0.87300
C263        C  0.42255405  0.21881501  0.99904806     0.87200
C264        C  0.51426916  0.21643159  0.06349326     0.87200
C265        C  0.49109881  0.23380979  0.90708005     0.87400
C266        C  0.79762820  0.18096726  0.88899612     0.79800
N267        N  0.79115507  0.21989370  0.87184526    -0.78600
C268        C  0.76332626  0.24657284  0.89033238     0.82200
N269        N  0.74328992  0.23456321  0.92507236    -0.78500
C270        C  0.74683352  0.19607611  0.94092714     0.82300
N271        N  0.77393829  0.16849575  0.92263169    -0.80200
O272        O  0.47367590  0.91247426  0.19905161    -0.74900
O273        O  0.50529539  0.03040958  0.21167884    -0.74900
O274        O  0.54632338  0.95627092  0.20306979    -0.75000
O275        O  0.43444052  0.98655320  0.19915536    -0.75000
O276        O  0.42616779  0.97860179  0.26809729    -0.75000
O277        O  0.54519573  0.95120100  0.27285570    -0.74900
O278        O  0.49831956  0.02169121  0.28076382    -0.74900
O279        O  0.47302493  0.90858345  0.26882285    -0.75000
Ni280      Ni  0.49029547  0.97170582  0.20071498     1.25400
Ni281      Ni  0.48559229  0.96495665  0.27516418     1.25400
C282        C  0.46729935  0.89177202  0.23338549     0.87300
C283        C  0.50633696  0.04485921  0.24964541     0.87200
C284        C  0.56460382  0.94865976  0.23725241     0.87200
C285        C  0.41109949  0.98610682  0.23126202     0.87400
C286        C  0.79660873  0.87887722  0.17471944     0.79800
N287        N  0.81149169  0.87798563  0.21518536    -0.78600
C288        C  0.78576678  0.88910379  0.24786194     0.82200
N289        N  0.74648931  0.90050328  0.23992664    -0.78500
C290        C  0.73116850  0.90109219  0.20106038     0.82300
N291        N  0.75593184  0.88992430  0.16791545    -0.80200
C292        C  0.57207315  0.27793961  0.29706624     0.79800
N293        N  0.57529477  0.28192502  0.25428896    -0.78600
C294        C  0.56643729  0.24865734  0.22910191     0.82200
N295        N  0.55400664  0.21286951  0.24625660    -0.78500
C296        C  0.54953809  0.20821268  0.28760957     0.82300
N297        N  0.55893048  0.24061915  0.31400627    -0.80200
O298        O  0.26987985  0.01315559  0.42295718    -0.74900
O299        O  0.26858198  0.93544605  0.51856308    -0.74900
O300        O  0.26506397  0.92957107  0.43399488    -0.75000
O301        O  0.28139766  0.01936459  0.50776953    -0.75000
O302        O  0.21338890  0.03058188  0.51451975    -0.75000
O303        O  0.19639713  0.93430944  0.43964491    -0.74900
O304        O  0.20059241  0.94668398  0.52322938    -0.74900
O305        O  0.20151350  0.01895568  0.43132896    -0.75000
Ni306      Ni  0.27371948  0.97426352  0.47072363     1.25400
Ni307      Ni  0.20057894  0.98302915  0.47743090     1.25400
C308        C  0.23428535  0.02773838  0.41087302     0.87300
C309        C  0.23284545  0.92784971  0.53600993     0.87200
C310        C  0.22930270  0.91558898  0.42515692     0.87200
C311        C  0.25144956  0.04062075  0.52295389     0.87400
C312        C  0.17832521  0.86955723  0.76566414     0.79800
N313        N  0.17625281  0.85694291  0.72434093    -0.78600
C314        C  0.20801733  0.86658031  0.69718509     0.82200
N315        N  0.24039652  0.88841008  0.71151640    -0.78500
C316        C  0.24310297  0.90137021  0.75124418     0.82300
N317        N  0.21213562  0.89193594  0.77909612    -0.80200
O318        O  0.01821395  0.27373792  0.41600188    -0.74900
O319        O  0.97568582  0.28025923  0.53216667    -0.74900
O320        O  0.05054695  0.28110846  0.49321409    -0.75000
O321        O  0.94165183  0.28176423  0.45336259    -0.75000
O322        O  0.93643801  0.21240870  0.45801954    -0.75000
O323        O  0.05221179  0.21157185  0.49520769    -0.74900
O324        O  0.97616024  0.21052832  0.53239792    -0.74900
O325        O  0.01252855  0.20467698  0.42190597    -0.75000
Ni326      Ni  0.99630819  0.28184126  0.47356346     1.25400
Ni327      Ni  0.99417523  0.20736228  0.47702981     1.25400
C328        C  0.02310537  0.23638536  0.40077380     0.87300
C329        C  0.97005196  0.24485188  0.55115242     0.87200
C330        C  0.07012324  0.24752800  0.49982015     0.87200
C331        C  0.92062640  0.24855839  0.44919114     0.87400
C332        C  0.89242800  0.18752506  0.78240524     0.79800
N333        N  0.91181040  0.17817142  0.74498925    -0.78600
C334        C  0.92233663  0.20985506  0.71823897     0.82200
N335        N  0.91310425  0.24936977  0.72839896    -0.78500
C336        C  0.89346925  0.25944181  0.76406612     0.82300
N337        N  0.88299494  0.22857820  0.79179934    -0.80200
C338        C  0.29803111  0.27396231  0.58694384     0.79800
N339        N  0.26434552  0.28414954  0.56299342    -0.78600
C340        C  0.23951952  0.25330823  0.54763852     0.82200
N341        N  0.24745856  0.21344171  0.55747274    -0.78500
C342        C  0.28000101  0.20236417  0.58084950     0.82300
N343        N  0.30613906  0.23260775  0.59578135    -0.80200
C344        C  0.08848900  0.16597535  0.17130146     0.79800
N345        N  0.09524319  0.16242933  0.21369199    -0.78600
C346        C  0.08202391  0.19368646  0.23992424     0.82200
N347        N  0.06244556  0.22678389  0.22396255    -0.78500
C348        C  0.05541115  0.23060671  0.18292800     0.82300
N349        N  0.06851926  0.20041215  0.15585129    -0.80200
C350        C  0.18433883  0.06249023  0.17526216     0.79800
N351        N  0.18126607  0.07846559  0.21530783    -0.78600
C352        C  0.21053773  0.06825118  0.24442444     0.82200
N353        N  0.24148269  0.04244613  0.23352177    -0.78500
C354        C  0.24571424  0.02690624  0.19483883     0.82300
N355        N  0.21759163  0.03743482  0.16466885    -0.80200
C356        C  0.18794139  0.16552580  0.07420147     0.79800
N357        N  0.17864843  0.20657391  0.08345711    -0.78600
C358        C  0.20760563  0.23712220  0.07667639     0.82200
N359        N  0.24487212  0.22651542  0.06096700    -0.78500
C360        C  0.25535831  0.18698590  0.05208308     0.82300
N361        N  0.22703587  0.15561710  0.05894069    -0.80200
C362        C  0.36819881  0.37129418  0.60821952     0.86000
C363        C  0.39529357  0.34470228  0.63912034    -0.54200
C364        C  0.37362257  0.31522199  0.66223280     0.08900
C365        C  0.32695235  0.31489243  0.65292533     0.19900
C366        C  0.34447144  0.33769727  0.58229711    -0.54900
C367        C  0.32369696  0.30810441  0.60545531     0.09000
C368        C  0.33303746  0.38913744  0.63755160    -0.54500
C369        C  0.31212000  0.35984134  0.66097605     0.09600
H370        H  0.42871837  0.34852927  0.64174979     0.14100
H371        H  0.30899475  0.29153978  0.67134743    -0.00100
H372        H  0.34430916  0.33736108  0.54823617     0.14400
H373        H  0.32384540  0.42121063  0.64081532     0.14200
C374        C  0.59419957  0.36910667  0.37663580     0.86000
C375        C  0.61569093  0.39396638  0.34034848    -0.54200
C376        C  0.63704613  0.36991432  0.31144451     0.08900
C377        C  0.63545314  0.32301912  0.32088347     0.19900
C378        C  0.56772903  0.33546063  0.35315544    -0.54900
C379        C  0.58936425  0.31179293  0.32412542     0.09000
C380        C  0.63109309  0.34220544  0.39462701    -0.54500
C381        C  0.65204239  0.31817514  0.36541017     0.09600
H382        H  0.61429209  0.42781503  0.33806700     0.14100
H383        H  0.65278565  0.30373106  0.29749386    -0.00100
H384        H  0.53466988  0.33118494  0.35882042     0.14400
H385        H  0.64015459  0.33973238  0.42683008     0.14200
C386        C  0.58354794  0.60226066  0.59017283     0.86000
C387        C  0.55839066  0.63168549  0.62063648    -0.54200
C388        C  0.58228970  0.65956201  0.64334168     0.08900
C389        C  0.62891351  0.65581569  0.63401774     0.19900
C390        C  0.60985497  0.63422223  0.56381958    -0.54900
C391        C  0.63296417  0.66200828  0.58679888     0.09000
C392        C  0.61708092  0.58192162  0.61886593    -0.54500
C393        C  0.64055215  0.60982728  0.64165329     0.09600
H394        H  0.52468268  0.63170459  0.62260441     0.14100
H395        H  0.64811994  0.67807442  0.65240778    -0.00100
H396        H  0.61050818  0.63638277  0.53006600     0.14400
H397        H  0.62270667  0.54847165  0.61997038     0.14200
C398        C  0.35233646  0.58719489  0.37962476     0.86000
C399        C  0.32292372  0.61861636  0.40294321    -0.54200
C400        C  0.30004717  0.64432671  0.37713894     0.08900
C401        C  0.30772870  0.63604303  0.33033374     0.19900
C402        C  0.32145120  0.56371499  0.34984296    -0.54900
C403        C  0.29844633  0.58946184  0.32422094     0.09000
C404        C  0.37796882  0.61482550  0.34846110    -0.54500
C405        C  0.35459978  0.64045422  0.32322715     0.09600
H406        H  0.32027691  0.61999483  0.43688061     0.14100
H407        H  0.28892247  0.65651622  0.30959098    -0.00100
H408        H  0.31786910  0.53013467  0.34808261     0.14400
H409        H  0.41164370  0.61328378  0.34598810     0.14200
C410        C  0.47410889  0.47923306  0.48483164    -0.03000
C411        C  0.37703267  0.51548232  0.41317681    -0.20800
C412        C  0.38098035  0.55960986  0.40997771    -0.07300
C413        C  0.41198225  0.57718564  0.43666896     0.13500
C414        C  0.43892153  0.55132421  0.46098545    -0.20800
C415        C  0.43874664  0.50669812  0.46041844    -0.07300
C416        C  0.40337276  0.48964205  0.43864604     0.13500
C417        C  0.39137602  0.44413154  0.44225325    -0.24200
H418        H  0.35214071  0.50029000  0.39668859     0.14800
H419        H  0.46012866  0.56770730  0.48109476     0.14800
C420        C  0.41836807  0.62373134  0.44132996    -0.24100
H421        H  0.36630925  0.43554424  0.42006098     0.05000
H422        H  0.37914137  0.43762064  0.47412601     0.08300
H423        H  0.41807186  0.42348043  0.43531952     0.08300
H424        H  0.39702955  0.64312898  0.42266077     0.08300
H425        H  0.45063778  0.63177749  0.43170639     0.08300
H426        H  0.41384908  0.63273110  0.47472342     0.05000
C427        C  0.55684303  0.56823783  0.51926125    -0.20800
C428        C  0.55612613  0.56920615  0.56378745    -0.07300
C429        C  0.53017034  0.53783447  0.58228850     0.13500
C430        C  0.50653383  0.50918319  0.55700364    -0.20800
C431        C  0.50434665  0.51049230  0.51215905    -0.07300
C432        C  0.53245200  0.54069325  0.49403619     0.13500
C433        C  0.53805780  0.54673440  0.44749757    -0.24200
H434        H  0.57666074  0.58933723  0.50232930     0.14800
H435        H  0.49008332  0.48505531  0.57368170     0.14800
C436        C  0.52687336  0.53353040  0.62933314    -0.24100
H437        H  0.53183236  0.57990850  0.43929638     0.05000
H438        H  0.51698552  0.52794013  0.42867389     0.08300
H439        H  0.57050048  0.53875642  0.43827626     0.08300
H440        H  0.51437504  0.56262454  0.64352358     0.08300
H441        H  0.55761519  0.52621158  0.64294770     0.08300
H442        H  0.50548583  0.50788728  0.63862559     0.05000
C443        C  0.53294993  0.42078892  0.38684292    -0.20800
C444        C  0.56587208  0.39889654  0.40625412    -0.07300
C445        C  0.56975655  0.40743731  0.45033077     0.13500
C446        C  0.54080405  0.43426674  0.47193530    -0.20800
C447        C  0.50530691  0.45321048  0.45349430    -0.07300
C448        C  0.50397636  0.44786813  0.40816538     0.13500
C449        C  0.47420268  0.47013956  0.37909185    -0.24200
H450        H  0.52974713  0.41645777  0.35329009     0.14800
H451        H  0.54475891  0.43864603  0.50536357     0.14800
C452        C  0.60347911  0.38868803  0.47670314    -0.24100
H453        H  0.48617393  0.47031953  0.34631844     0.05000
H454        H  0.47006886  0.50356432  0.38668936     0.08300
H455        H  0.44424349  0.45347607  0.37742378     0.08300
H456        H  0.63440421  0.39769640  0.46401413     0.08300
H457        H  0.59919691  0.35432363  0.47842151     0.08300
H458        H  0.60240648  0.40014127  0.50961264     0.05000
C459        C  0.42325913  0.38178868  0.55004541    -0.20800
C460        C  0.39518523  0.40145737  0.57812672    -0.07300
C461        C  0.39420571  0.44630584  0.57477219     0.13500
C462        C  0.41976959  0.46790220  0.54488117    -0.20800
C463        C  0.44848676  0.44846302  0.51678215    -0.07300
C464        C  0.44837237  0.40304527  0.51949592     0.13500
C465        C  0.47262692  0.37392033  0.49096924    -0.24200
H466        H  0.42512077  0.34797533  0.55169694     0.14800
H467        H  0.41753472  0.50168931  0.54352892     0.14800
C468        C  0.36711855  0.47349448  0.60208225    -0.24100
H469        H  0.46066186  0.34137978  0.49241889     0.05000
H470        H  0.50522805  0.37163041  0.50153197     0.08300
H471        H  0.46993261  0.38246640  0.45758397     0.08300
H472        H  0.37412553  0.46766115  0.63559908     0.08300
H473        H  0.33397930  0.46816934  0.59428495     0.08300
H474        H  0.37274184  0.50734705  0.59679749     0.05000
C475        C  0.14298629  0.22495922  0.49108903    -0.20800
C476        C  0.11458688  0.25218068  0.51024367    -0.07300
C477        C  0.12997101  0.28708428  0.53355287     0.13500
C478        C  0.17258986  0.28977913  0.54203634    -0.20800
C479        C  0.20039760  0.26061755  0.52532168    -0.07300
C480        C  0.18576283  0.23004611  0.49666891     0.13500
C481        C  0.21469851  0.20190789  0.47198960    -0.24200
H482        H  0.13188267  0.20049447  0.47039104     0.14800
H483        H  0.18393359  0.31344660  0.56350282     0.14800
C484        C  0.10235252  0.32165840  0.55017477    -0.24100
H485        H  0.20787868  0.20486609  0.43801727     0.05000
H486        H  0.21001904  0.16887894  0.48160812     0.08300
H487        H  0.24788846  0.21028873  0.47623415     0.08300
H488        H  0.07694379  0.30853717  0.56927761     0.08300
H489        H  0.08923465  0.33988202  0.52379936     0.08300
H490        H  0.11964180  0.34402150  0.57026584     0.05000
C491        C  0.02779328  0.18851499  0.34019694    -0.20800
C492        C  0.04176080  0.22585703  0.35917454    -0.07300
C493        C  0.07757728  0.24527874  0.34258635     0.13500
C494        C  0.09681365  0.22813763  0.30643332    -0.20800
C495        C  0.08085938  0.19230766  0.28600485    -0.07300
C496        C  0.04723429  0.17118598  0.30481539     0.13500
C497        C  0.02889140  0.13190986  0.28644133    -0.24200
H498        H  0.00106920  0.17229460  0.35321142     0.14800
H499        H  0.12190888  0.24525520  0.29145869     0.14800
C500        C  0.09526226  0.28402636  0.36247508    -0.24100
H501        H  0.02837701  0.10702895  0.31068418     0.05000
H502        H  0.04704486  0.11971333  0.25942189     0.08300
H503        H  0.99654534  0.13814501  0.27609583     0.08300
H504        H  0.10393945  0.27742708  0.39546840     0.08300
H505        H  0.07178351  0.30954191  0.36183980     0.08300
H506        H  0.12350261  0.29504921  0.34558179     0.05000
C507        C  0.92112166  0.21557225  0.60261124    -0.20800
C508        C  0.95692876  0.23978140  0.59537875    -0.07300
C509        C  0.98558136  0.24436117  0.62837314     0.13500
C510        C  0.97664072  0.22703408  0.66792303    -0.20800
C511        C  0.93952249  0.20503766  0.67571279    -0.07300
C512        C  0.91199580  0.19850122  0.64209229     0.13500
C513        C  0.87169802  0.17528919  0.64728442    -0.24200
H514        H  0.90053173  0.20872007  0.57682024     0.14800
H515        H  0.99726483  0.23348036  0.69392813     0.14800
C516        C  0.02588753  0.26695775  0.62179308    -0.24100
H517        H  0.87068366  0.14890666  0.62459154     0.05000
H518        H  0.84533629  0.19684766  0.64099969     0.08300
H519        H  0.86770007  0.16207424  0.67913972     0.08300
H520        H  0.01923761  0.29967196  0.61232159     0.08300
H521        H  0.04427825  0.25068740  0.59705734     0.08300
H522        H  0.04488153  0.26771960  0.65074380     0.05000
C523        C  0.30037756  0.09927870  0.53527050    -0.20800
C524        C  0.26353481  0.07848007  0.54772109    -0.07300
C525        C  0.24121142  0.09449593  0.58260284     0.13500
C526        C  0.25288442  0.13344315  0.59975578    -0.20800
C527        C  0.28644101  0.15675108  0.58327872    -0.07300
C528        C  0.31200262  0.13792957  0.55259255     0.13500
C529        C  0.34929481  0.16066691  0.53510713    -0.24200
H530        H  0.31896075  0.08666769  0.50969206     0.14800
H531        H  0.23302524  0.14770786  0.62344761     0.14800
C532        C  0.20517376  0.07182159  0.60252396    -0.24100
H533        H  0.36617761  0.14158112  0.51129458     0.05000
H534        H  0.37117522  0.16795380  0.56089342     0.08300
H535        H  0.33941987  0.19025789  0.51992543     0.08300
H536        H  0.21128195  0.06770056  0.63651252     0.08300
H537        H  0.20018690  0.04024063  0.58923886     0.08300
H538        H  0.17628479  0.09050452  0.59877356     0.05000
C539        C  0.18619369  0.05515688  0.35625876    -0.20800
C540        C  0.22755696  0.05243600  0.37151951    -0.07300
C541        C  0.25955102  0.07094018  0.34746632     0.13500
C542        C  0.25011369  0.08641823  0.30728416    -0.20800
C543        C  0.21042039  0.08060662  0.28919088    -0.07300
C544        C  0.17741106  0.06839572  0.31530992     0.13500
C545        C  0.13365344  0.06546065  0.29889684    -0.24200
H546        H  0.16053040  0.04335214  0.37492126     0.14800
H547        H  0.27542694  0.09716272  0.28740338     0.14800
C548        C  0.30373112  0.07285481  0.36275204    -0.24100
H549        H  0.11125318  0.05606920  0.32380586     0.05000
H550        H  0.13205881  0.04186907  0.27336433     0.08300
H551        H  0.12380596  0.09640857  0.28667331     0.08300
H552        H  0.31659987  0.04079004  0.36587127     0.08300
H553        H  0.30470649  0.08913555  0.39353350     0.08300
H554        H  0.32415102  0.09015479  0.34056289     0.05000
C555        C  0.18436750  0.89317687  0.58693487    -0.20800
C556        C  0.22586138  0.89836349  0.57209506    -0.07300
C557        C  0.25782864  0.87743846  0.59377841     0.13500
C558        C  0.24819301  0.85722852  0.63186358    -0.20800
C559        C  0.20832035  0.86061294  0.65084954    -0.07300
C560        C  0.17534416  0.87531740  0.62623331     0.13500
C561        C  0.13121672  0.87538924  0.64250343    -0.24200
H562        H  0.15867877  0.90617323  0.56939672     0.14800
H563        H  0.27348177  0.84425263  0.65008974     0.14800
C564        C  0.30234062  0.87833560  0.57878124    -0.24100
H565        H  0.10902418  0.88684386  0.61854965     0.05000
H566        H  0.12839354  0.89612738  0.67033804     0.08300
H567        H  0.12202168  0.84307519  0.65121547     0.08300
H568        H  0.31401515  0.91098481  0.57882110     0.08300
H569        H  0.30451529  0.86503773  0.54663659     0.08300
H570        H  0.32299446  0.85966827  0.59937199     0.05000
C571        C  0.55479827  0.09537979  0.28115782    -0.20800
C572        C  0.51681221  0.08840648  0.26074959    -0.07300
C573        C  0.48555306  0.11933314  0.26367160     0.13500
C574        C  0.49432166  0.15763113  0.28365898    -0.20800
C575        C  0.53429976  0.16661868  0.29924085    -0.07300
C576        C  0.56399625  0.13406724  0.29997671     0.13500
C577        C  0.60646214  0.14125538  0.31834043    -0.24200
H578        H  0.57746554  0.07038502  0.28233901     0.14800
H579        H  0.47155449  0.18267596  0.28219942     0.14800
C580        C  0.44316377  0.11209835  0.24512407    -0.24100
H581        H  0.62619135  0.11272725  0.31643814     0.05000
H582        H  0.60307957  0.15010131  0.35183839     0.08300
H583        H  0.62277465  0.16671869  0.30130734     0.08300
H584        H  0.42819552  0.08471937  0.26031665     0.08300
H585        H  0.44628280  0.10600827  0.21093813     0.08300
H586        H  0.42242364  0.13961204  0.24960600     0.05000
C587        C  0.35880927  0.02613520  0.19246102    -0.20800
C588        C  0.36668870  0.99436158  0.22205362    -0.07300
C589        C  0.33414278  0.96643299  0.23240231     0.13500
C590        C  0.29454209  0.97271180  0.21482142    -0.20800
C591        C  0.28608836  0.00657514  0.18788855    -0.07300
C592        C  0.31927985  0.03237276  0.17520666     0.13500
C593        C  0.31222883  0.06863622  0.14587435    -0.24200
H594        H  0.38399983  0.04659476  0.18287394     0.14800
H595        H  0.26886254  0.95352070  0.22569599     0.14800
C596        C  0.33944780  0.92999069  0.26181794    -0.24100
H597        H  0.34159045  0.08555530  0.13879198     0.03400
H598        H  0.29006500  0.09136207  0.16011220     0.08300
H599        H  0.29930336  0.05693817  0.11586063     0.08300
H600        H  0.37162466  0.92622006  0.27324558     0.08300
H601        H  0.33070822  0.90057709  0.24555708     0.08300
H602        H  0.31863554  0.93421410  0.28946235     0.05000
C603        C  0.61682353  0.89480604  0.22044183    -0.20800
C604        C  0.60852743  0.93627913  0.23243792    -0.07300
C605        C  0.63939621  0.96691084  0.22565009     0.13500
C606        C  0.67827838  0.95509845  0.20900719    -0.20800
C607        C  0.68719538  0.91333024  0.19846113    -0.07300
C608        C  0.65579198  0.88291383  0.20397359     0.13500
C609        C  0.66283566  0.83745267  0.19379741    -0.24200
H610        H  0.59235209  0.87162937  0.22308137     0.14800
H611        H  0.70286675  0.97817947  0.20671313     0.14800
C612        C  0.63145108  0.01205798  0.23654403    -0.24100
H613        H  0.63930869  0.82719646  0.17063570     0.05000
H614        H  0.65935153  0.81846861  0.22272409     0.08300
H615        H  0.69409952  0.83136864  0.18013063     0.08300
H616        H  0.62423269  0.01457866  0.27053802     0.08300
H617        H  0.60485439  0.02423277  0.21814355     0.08300
H618        H  0.65894739  0.03196842  0.22972644     0.05000
C619        C  0.50687668  0.25168370  0.13120672    -0.20800
C620        C  0.52638851  0.21946690  0.10793868    -0.07300
C621        C  0.56424877  0.20284502  0.12250801     0.13500
C622        C  0.58103145  0.21825173  0.16018645    -0.20800
C623        C  0.56100779  0.25009260  0.18358251    -0.07300
C624        C  0.52388216  0.26744315  0.16827477     0.13500
C625        C  0.50098579  0.30121705  0.19222691    -0.24200
H626        H  0.47861398  0.26577952  0.11931980     0.14800
H627        H  0.60851499  0.20344799  0.17303781     0.14800
C628        C  0.58699696  0.16920724  0.09838000    -0.24100
H629        H  0.47263855  0.31175547  0.17551070     0.05000
H630        H  0.52167158  0.32866828  0.19635735     0.08300
H631        H  0.49121373  0.28943185  0.22350427     0.08300
H632        H  0.59522158  0.18054133  0.06653097     0.08300
H633        H  0.56684576  0.14120044  0.09556668     0.08300
H634        H  0.61619259  0.15973715  0.11423781     0.05000
C635        C  0.34998501  0.19660338  0.98303177    -0.20800
C636        C  0.37852026  0.21287613  0.01216901    -0.07300
C637        C  0.36799755  0.21153443  0.05520817     0.13500
C638        C  0.32900603  0.19588433  0.06786133    -0.20800
C639        C  0.29932255  0.18198922  0.03869476    -0.07300
C640        C  0.31022676  0.18229736  0.99568394     0.13500
C641        C  0.27924662  0.16899093  0.96311338    -0.24200
H642        H  0.35879245  0.19534583  0.95016850     0.14800
H643        H  0.32032597  0.19736943  0.10077388     0.14800
C644        C  0.39816384  0.22627182  0.08800384    -0.24100
H645        H  0.29260088  0.17068538  0.93093572     0.05000
H646        H  0.25145595  0.18966513  0.96447676     0.08300
H647        H  0.26952024  0.13623509  0.96911623     0.08300
H648        H  0.40625927  0.25952129  0.08227755     0.08300
H649        H  0.42684328  0.20691945  0.08664243     0.08300
H650        H  0.38491527  0.22377974  0.12016813     0.05000
C651        C  0.63744258  0.17356500  0.94773426    -0.20800
C652        C  0.62498760  0.20790217  0.97280645    -0.07300
C653        C  0.65493345  0.22727310  0.99844454     0.13500
C654        C  0.69677391  0.21404435  0.99555695    -0.20800
C655        C  0.70983021  0.18411782  0.96543256    -0.07300
C656        C  0.67912213  0.16129531  0.94395268     0.13500
C657        C  0.69039439  0.12698079  0.91329197    -0.24200
H658        H  0.61444706  0.15707981  0.92930267     0.14800
H659        H  0.72031111  0.23166720  0.01216198     0.14800
C660        C  0.64333600  0.26237098  0.02789037    -0.24100
H661        H  0.66231546  0.11119594  0.90079109     0.05000
H662        H  0.70972020  0.10302953  0.92917103     0.08300
H663        H  0.70775604  0.13996211  0.88609674     0.08300
H664        H  0.61935056  0.25168038  0.05062758     0.08300
H665        H  0.63097334  0.28919191  0.00973918     0.08300
H666        H  0.67060598  0.27355516  0.04591599     0.05000
C667        C  0.11870154  0.47728362  0.24216108    -0.20800
C668        C  0.08458848  0.50296262  0.25147995    -0.07300
C669        C  0.08958477  0.53559352  0.28140738     0.13500
C670        C  0.12920928  0.54383786  0.29798240    -0.20800
C671        C  0.16393007  0.51999235  0.28612451    -0.07300
C672        C  0.15773818  0.48449709  0.26021901     0.13500
C673        C  0.19326156  0.45604076  0.24802983    -0.24200
H674        H  0.11500021  0.45134295  0.22081276     0.14800
H675        H  0.13393637  0.57176376  0.31662027     0.14800
C676        C  0.05376207  0.56348312  0.29427072    -0.24100
H677        H  0.18544243  0.42334046  0.25663556     0.05000
H678        H  0.22249613  0.46453944  0.26429839     0.08300
H679        H  0.19871123  0.45774133  0.21363743     0.08300
H680        H  0.02976512  0.54524012  0.31134412     0.08300
H681        H  0.03978871  0.57790289  0.26611543     0.08300
H682        H  0.06391433  0.58910368  0.31543401     0.05000
C683        C  0.98428202  0.31433189  0.20576587    -0.20800
C684        C  0.01340147  0.34662067  0.20914258    -0.07300
C685        C  0.05309443  0.34138491  0.19018462     0.13500
C686        C  0.06339395  0.30344245  0.17064326    -0.20800
C687        C  0.03573544  0.26976171  0.17131641    -0.07300
C688        C  0.99487314  0.27620547  0.18666101     0.13500
C689        C  0.96293750  0.24186779  0.18575554    -0.24200
H690        H  0.95287159  0.31909574  0.21716704     0.14800
H691        H  0.09508519  0.29824978  0.15982611     0.14800
C692        C  0.08536492  0.37534837  0.19204286    -0.24100
H693        H  0.95386819  0.23338720  0.21830859     0.05000
H694        H  0.97489385  0.21344410  0.16956626     0.08300
H695        H  0.93496012  0.25284131  0.16870776     0.08300
H696        H  0.09162903  0.38285925  0.22540364     0.08300
H697        H  0.07424198  0.40371127  0.17554672     0.08300
H698        H  0.11516629  0.36561276  0.17703846     0.05000
C699        C  0.88137397  0.58602639  0.21642788    -0.20800
C700        C  0.92391983  0.57931107  0.20893858    -0.07300
C701        C  0.94609277  0.60854132  0.18373590     0.13500
C702        C  0.92583402  0.64428128  0.16864991    -0.20800
C703        C  0.88431279  0.65267605  0.17886571    -0.07300
C704        C  0.86136471  0.62234831  0.20162369     0.13500
C705        C  0.81583502  0.62910516  0.21102584    -0.24200
H706        H  0.86364794  0.56258618  0.23327863     0.14800
H707        H  0.94379110  0.66805870  0.15246288     0.14800
C708        C  0.99191282  0.60340812  0.17402769    -0.24100
H709        H  0.80219684  0.60223925  0.22829729     0.05000
H710        H  0.79864866  0.63282278  0.18115778     0.08300
H711        H  0.81134670  0.65760007  0.23049470     0.08300
H712        H  0.99742440  0.57609973  0.15323720     0.08300
H713        H  0.00940514  0.59941343  0.20356061     0.08300
H714        H  0.00483836  0.63114644  0.15761178     0.05000
C715        C  0.26523474  0.54516370  0.11664374    -0.20800
C716        C  0.22481041  0.54499410  0.09894690    -0.07300
C717        C  0.19331757  0.56834881  0.11931561     0.13500
C718        C  0.20222939  0.58787800  0.15790966    -0.20800
C719        C  0.24077218  0.58203184  0.17839775    -0.07300
C720        C  0.27340332  0.56278007  0.15606189     0.13500
C721        C  0.31584626  0.55724680  0.17513568    -0.24200
H722        H  0.29049596  0.52878315  0.10101766     0.14800
H723        H  0.17709185  0.60313669  0.17494657     0.14800
C724        C  0.15006756  0.57154884  0.10174389    -0.24100
H725        H  0.33814955  0.54245797  0.15281721     0.05000
H726        H  0.31378875  0.53689793  0.20323045     0.08300
H727        H  0.32848137  0.58821984  0.18420915     0.08300
H728        H  0.13556702  0.54009251  0.10067527     0.08300
H729        H  0.15137907  0.58499035  0.06968162     0.08300
H730        H  0.12973874  0.59195373  0.12136134     0.05000
C731        C  0.23669009  0.30610458  0.09432250    -0.20800
C732        C  0.20120155  0.28273475  0.08272763    -0.07300
C733        C  0.16791746  0.30373971  0.06374688     0.13500
C734        C  0.17336477  0.34551123  0.05134835    -0.20800
C735        C  0.21167572  0.36687583  0.05661589    -0.07300
C736        C  0.24285566  0.34745975  0.08060871     0.13500
C737        C  0.28294299  0.36936016  0.09090406    -0.24200
H738        H  0.26195856  0.29024691  0.11015790     0.14800
H739        H  0.14814640  0.36041705  0.03463738     0.14800
C740        C  0.12794815  0.28148616  0.05360190    -0.24100
H741        H  0.30293255  0.35006051  0.11158275     0.05000
H742        H  0.27613882  0.39925643  0.10740469     0.08300
H743        H  0.30083413  0.37565425  0.06172108     0.08300
H744        H  0.11403151  0.26864752  0.08282341     0.08300
H745        H  0.13405060  0.25560067  0.03111125     0.08300
H746        H  0.10482780  0.30287860  0.03923129     0.05000
C747        C  0.17289342  0.60915699  0.94306381    -0.20800
C748        C  0.20312376  0.58173157  0.92618441    -0.07300
C749        C  0.21816549  0.58891537  0.88527823     0.13500
C750        C  0.20572967  0.62537758  0.86400889    -0.20800
C751        C  0.17892436  0.65513304  0.88285741    -0.07300
C752        C  0.16061611  0.64561461  0.92194881     0.13500
C753        C  0.13017707  0.67519167  0.94266555    -0.24200
H754        H  0.15943285  0.60242103  0.97359342     0.14800
H755        H  0.22011869  0.63275105  0.83407091     0.14800
C756        C  0.24708033  0.55823836  0.86410166    -0.24100
H757        H  0.11838352  0.66266640  0.97295472     0.05000
H758        H  0.10314958  0.68015200  0.92172795     0.08300
H759        H  0.14532677  0.70569278  0.94906213     0.08300
H760        H  0.23187378  0.52714440  0.86202305     0.08300
H761        H  0.27620884  0.55533043  0.88237546     0.08300
H762        H  0.25539890  0.56834008  0.83181173     0.05000
C763        C  0.49634804  0.23819183  0.78700760    -0.20800
C764        C  0.47044703  0.27316534  0.77902038    -0.07300
C765        C  0.45829979  0.29837134  0.81314810     0.13500
C766        C  0.46599563  0.28449730  0.85408882    -0.20800
C767        C  0.48559381  0.24570970  0.86221917    -0.07300
C768        C  0.50266271  0.22323290  0.82811281     0.13500
C769        C  0.52662275  0.18330021  0.83472884    -0.24200
H770        H  0.50594544  0.21868086  0.76077904     0.14800
H771        H  0.45441986  0.30325851  0.88003122     0.14800
C772        C  0.43318730  0.33764191  0.80651224    -0.24100
H773        H  0.53882561  0.17043861  0.80472592     0.05000
H774        H  0.50605919  0.15937920  0.84910848     0.08300
H775        H  0.55349592  0.18923460  0.85560803     0.08300
H776        H  0.40297827  0.32992319  0.79180000     0.08300
H777        H  0.45071203  0.35929149  0.78577361     0.08300
H778        H  0.42651143  0.35410988  0.83653649     0.05000
C779        C  0.38764294  0.10933263  0.71309952    -0.20800
C780        C  0.40389162  0.09853159  0.75293093    -0.07300
C781        C  0.39391363  0.12448520  0.78730377     0.13500
C782        C  0.37411080  0.16312104  0.77957117    -0.20800
C783        C  0.36852660  0.17790886  0.73805957    -0.07300
C784        C  0.37019925  0.14869765  0.70531006     0.13500
C785        C  0.35786619  0.16032469  0.66141551    -0.24200
H786        H  0.39220108  0.08851557  0.68659338     0.14800
H787        H  0.37070229  0.18511784  0.80532378     0.14800
C788        C  0.40726703  0.11373576  0.83111178    -0.24100
H789        H  0.35931696  0.13297492  0.63990015     0.05000
H790        H  0.37891581  0.18469392  0.64866456     0.08300
H791        H  0.32542295  0.17226715  0.66186635     0.08300
H792        H  0.44168935  0.11113177  0.83231764     0.08300
H793        H  0.39307057  0.08358885  0.84070494     0.08300
H794        H  0.39739735  0.13804529  0.85408747     0.05000
C795        C  0.61277139  0.03705022  0.79553845    -0.20800
C796        C  0.58593365  0.05745128  0.76740823    -0.07300
C797        C  0.59604484  0.09806743  0.75373080     0.13500
C798        C  0.63465047  0.11534505  0.76499691    -0.20800
C799        C  0.66414400  0.09207004  0.78779483    -0.07300
C800        C  0.65184469  0.05369504  0.80559829     0.13500
C801        C  0.68151036  0.02832691  0.83175625    -0.24200
H802        H  0.60414061  0.00664528  0.80778859     0.14800
H803        H  0.64410253  0.14483049  0.75119622     0.14800
C804        C  0.56674283  0.12274759  0.72663205    -0.24100
H805        H  0.66683681  0.99914796  0.84348748     0.05000
H806        H  0.69153833  0.04702389  0.85924154     0.08300
H807        H  0.70928320  0.01937552  0.81284704     0.08300
H808        H  0.53605663  0.12587831  0.74255473     0.08300
H809        H  0.56254698  0.10653001  0.69614970     0.08300
H810        H  0.57878536  0.15464914  0.72019870     0.05000
C811        C  0.35571388  0.91383222  0.77067679    -0.20800
C812        C  0.36511756  0.94561290  0.74140714    -0.07300
C813        C  0.33199344  0.96823513  0.72340631     0.13500
C814        C  0.29086997  0.95746082  0.73368154    -0.20800
C815        C  0.28162657  0.92394314  0.76072697    -0.07300
C816        C  0.31449885  0.90273226  0.78038168     0.13500
C817        C  0.30600793  0.86705758  0.80997153    -0.24200
H818        H  0.38089690  0.89734907  0.78598217     0.14800
H819        H  0.26551317  0.97302997  0.71767991     0.14800
C820        C  0.33958434  0.00416835  0.69401068    -0.24100
H821        H  0.33520411  0.85356999  0.82265548     0.05000
H822        H  0.28902852  0.84185618  0.79337321     0.08300
H823        H  0.28672068  0.87835361  0.83673468     0.08300
H824        H  0.35696535  0.99318504  0.66585460     0.08300
H825        H  0.35772565  0.02839547  0.71052612     0.08300
H826        H  0.31009032  0.01872309  0.68332906     0.05000
C827        C  0.76882875  0.86835756  0.31946173    -0.20800
C828        C  0.79664021  0.89023375  0.29296133    -0.07300
C829        C  0.81634251  0.92612407  0.30927308     0.13500
C830        C  0.80353569  0.94231343  0.34842624    -0.20800
C831        C  0.77093767  0.92393603  0.37172841    -0.07300
C832        C  0.75492862  0.88529142  0.35799013     0.13500
C833        C  0.72273257  0.86236816  0.38348677    -0.24200
H834        H  0.75357005  0.84065291  0.30730896     0.14800
H835        H  0.81770089  0.97092237  0.35977068     0.14800
C836        C  0.84871562  0.94970768  0.28461854    -0.24100
H837        H  0.71475961  0.83172814  0.36918199     0.05000
H838        H  0.69382244  0.88130900  0.38570194     0.08300
H839        H  0.73480078  0.85666909  0.41551164     0.08300
H840        H  0.83717405  0.98169479  0.27767189     0.08300
H841        H  0.85678191  0.93393948  0.25463651     0.08300
H842        H  0.87762209  0.95208977  0.30334946     0.05000
C843        C  0.73954635  0.08119389  0.59697644    -0.20800
C844        C  0.72319923  0.04091165  0.59024972    -0.07300
C845        C  0.71958555  0.01350749  0.62485485     0.13500
C846        C  0.73348684  0.02638764  0.66444108    -0.20800
C847        C  0.74999792  0.06644850  0.67108960    -0.07300
C848        C  0.75159241  0.09464053  0.63720856     0.13500
C849        C  0.76512411  0.13908904  0.64394074    -0.24200
H850        H  0.74370194  0.10190231  0.57040054     0.14800
H851        H  0.72963358  0.00550144  0.69096240     0.14800
C852        C  0.70211416  0.97003254  0.62107745    -0.24100
H853        H  0.76661679  0.15683488  0.61406063     0.05000
H854        H  0.79630052  0.13910435  0.65841695     0.08300
H855        H  0.74292287  0.15519670  0.66541726     0.08300
H856        H  0.68989759  0.96348530  0.58945087     0.08300
H857        H  0.67589821  0.96621457  0.64360932     0.08300
H858        H  0.72663823  0.94668623  0.62838571     0.05000
C859        C  0.73632551  0.14554753  0.36221333    -0.20800
C860        C  0.70521311  0.17161164  0.37996336    -0.07300
C861        C  0.68244780  0.15677071  0.41480863     0.13500
C862        C  0.69336774  0.11824835  0.43279736    -0.20800
C863        C  0.72698737  0.09411023  0.41748101    -0.07300
C864        C  0.74746154  0.10702415  0.38056806     0.13500
C865        C  0.78069333  0.08023936  0.36054392    -0.24200
H866        H  0.75431274  0.15704508  0.33577449     0.14800
H867        H  0.67634347  0.10748206  0.46018481     0.14800
C868        C  0.64892679  0.18297357  0.43533614    -0.24100
H869        H  0.79310047  0.09461881  0.33136304     0.05000
H870        H  0.76760689  0.04915950  0.35239198     0.08300
H871        H  0.80690443  0.07598555  0.38262302     0.08300
H872        H  0.62450938  0.19068514  0.41215056     0.08300
H873        H  0.66245404  0.21239500  0.44773653     0.08300
H874        H  0.63386033  0.16634618  0.46192657     0.05000
C875        C  0.80326800  0.25883989  0.44865625    -0.20800
C876        C  0.79644530  0.28003483  0.41061801    -0.07300
C877        C  0.83105648  0.29097524  0.38555996     0.13500
C878        C  0.87114336  0.27873323  0.39816831    -0.20800
C879        C  0.87745953  0.25469500  0.43461677    -0.07300
C880        C  0.84311289  0.24562054  0.46062133     0.13500
C881        C  0.84851944  0.22276017  0.50137267    -0.24200
H882        H  0.77661944  0.24944233  0.46743646     0.14800
H883        H  0.89774749  0.28767688  0.37911791     0.14800
C884        C  0.82641378  0.31413710  0.34474901    -0.24100
H885        H  0.81838874  0.21797975  0.51793363     0.05000
H886        H  0.86893245  0.24148445  0.52202748     0.08300
H887        H  0.86277888  0.19160988  0.49550831     0.08300
H888        H  0.79360522  0.32266797  0.33827738     0.08300
H889        H  0.83820500  0.29445333  0.31848270     0.08300
H890        H  0.84476308  0.34350365  0.34587350     0.05000
C891        C  0.20982589  0.36462510  0.82639818    -0.20800
C892        C  0.24847754  0.37146628  0.80591440    -0.07300
C893        C  0.28010894  0.39168757  0.82831396     0.13500
C894        C  0.27075766  0.40897561  0.86787103    -0.20800
C895        C  0.23015202  0.40752935  0.88579424    -0.07300
C896        C  0.19989325  0.38319465  0.86534417     0.13500
C897        C  0.15687894  0.37759399  0.88343194    -0.24200
H898        H  0.18553582  0.34825756  0.80961011     0.14800
H899        H  0.29522657  0.42597368  0.88364005     0.14800
C900        C  0.32286613  0.39761960  0.80963476    -0.24100
H901        H  0.13767184  0.35649561  0.86378651     0.05000
H902        H  0.14069137  0.40825586  0.88519436     0.08300
H903        H  0.15893765  0.36371729  0.91525016     0.08300
H904        H  0.32106679  0.41741147  0.78114875     0.08300
H905        H  0.33627971  0.36667473  0.80125669     0.08300
H906        H  0.34432585  0.41307669  0.83196853     0.05000
C907        C  0.11970996  0.46504376  0.71865607    -0.20800
C908        C  0.08718728  0.43607376  0.71634500    -0.07300
C909        C  0.09509499  0.39605417  0.69885822     0.13500
C910        C  0.13577164  0.38527144  0.68643796    -0.20800
C911        C  0.16875995  0.41353733  0.69077469    -0.07300
C912        C  0.16017320  0.45439958  0.70573416     0.13500
C913        C  0.19387343  0.48673018  0.71038813    -0.24200
H914        H  0.11329220  0.49663697  0.72944582     0.14800
H915        H  0.14252002  0.35342291  0.67671494     0.14800
C916        C  0.06093986  0.36405204  0.69478722    -0.24100
H917        H  0.18546412  0.51511564  0.69228293     0.05000
H918        H  0.22442569  0.47539680  0.69849628     0.08300
H919        H  0.19714223  0.49533074  0.74397265     0.08300
H920        H  0.03678720  0.37513808  0.67273477     0.08300
H921        H  0.04649080  0.35833253  0.72596890     0.08300
H922        H  0.07304345  0.33378361  0.68262007     0.05000
C923        C  0.88421824  0.36786920  0.72684473    -0.20800
C924        C  0.91835559  0.38529592  0.74755188    -0.07300
C925        C  0.93494543  0.36370838  0.78286350     0.13500
C926        C  0.91920976  0.32420895  0.79406677    -0.20800
C927        C  0.88820295  0.30486564  0.77051425    -0.07300
C928        C  0.86874210  0.32819218  0.73821022     0.13500
C929        C  0.83327361  0.30963607  0.71373909    -0.24200
H930        H  0.87041151  0.38472990  0.70096153     0.14800
H931        H  0.93481690  0.30612176  0.81804538     0.14800
C932        C  0.97176900  0.38015451  0.80697833    -0.24100
H933        H  0.82103571  0.33196208  0.69017917     0.05000
H934        H  0.80752059  0.30146227  0.73558976     0.08300
H935        H  0.84350963  0.28102312  0.69677671     0.08300
H936        H  0.96308735  0.40923253  0.82397886     0.08300
H937        H  0.99811198  0.38637326  0.78517746     0.08300
H938        H  0.98277390  0.35747654  0.83082731     0.05000
C939        C  0.07505388  0.59931122  0.74011202    -0.20800
C940        C  0.05376623  0.59093386  0.70217453    -0.07300
C941        C  0.05765975  0.61987027  0.66921862     0.13500
C942        C  0.07660785  0.65870742  0.67751383    -0.20800
C943        C  0.08630859  0.67089471  0.71912322    -0.07300
C944        C  0.09045604  0.63938351  0.74931977     0.13500
C945        C  0.10697018  0.64900691  0.79236360    -0.24200
H946        H  0.07527166  0.57592169  0.76467665     0.14800
H947        H  0.07559699  0.68260915  0.65344203     0.14800
C948        C  0.03831492  0.61201470  0.62708948    -0.24100
H949        H  0.10877926  0.62046982  0.81207831     0.05000
H950        H  0.08644864  0.67187080  0.80868708     0.08300
H951        H  0.13876659  0.66226774  0.78953279     0.08300
H952        H  0.00415996  0.60809125  0.63073005     0.08300
H953        H  0.05195405  0.58331804  0.61289077     0.08300
H954        H  0.04383340  0.63842244  0.60517085     0.05000
C955        C  0.88830290  0.72811882  0.34974615    -0.20800
C956        C  0.93139680  0.72870908  0.35607665    -0.07300
C957        C  0.95755248  0.74555571  0.32450748     0.13500
C958        C  0.94022997  0.75876185  0.28636134    -0.20800
C959        C  0.89722819  0.75653659  0.27942411    -0.07300
C960        C  0.87094624  0.74221454  0.31209755     0.13500
C961        C  0.82434292  0.74055401  0.30743825    -0.24200
H962        H  0.86784447  0.71815226  0.37500957     0.14800
H963        H  0.96060190  0.76813422  0.26082307     0.14800
C964        C  0.00388899  0.74878344  0.33082556    -0.24100
H965        H  0.80939170  0.75926048  0.33281205     0.05000
H966        H  0.81363401  0.70764613  0.30982103     0.08300
H967        H  0.81384362  0.75352600  0.27702211     0.08300
H968        H  0.01691766  0.71735762  0.33769101     0.08300
H969        H  0.01070633  0.77014201  0.35737767     0.08300
H970        H  0.01992443  0.76121553  0.30252442     0.05000
C971        C  0.95278490  0.72622965  0.63182463    -0.20800
C972        C  0.97275780  0.75109189  0.60177580    -0.07300
C973        C  0.99398575  0.78789595  0.61549331     0.13500
C974        C  0.99722250  0.79653723  0.65851902    -0.20800
C975        C  0.98301227  0.76801015  0.68831448    -0.07300
C976        C  0.95705095  0.73474975  0.67483351     0.13500
C977        C  0.93827486  0.70450094  0.70563289    -0.24200
H978        H  0.93478967  0.69937014  0.62188623     0.14800
H979        H  0.01693847  0.82204544  0.66875237     0.14800
C980        C  0.01667812  0.81674723  0.58567412    -0.24100
H981        H  0.90414253  0.70266895  0.70081342     0.05000
H982        H  0.94380982  0.71425493  0.73857410     0.08300
H983        H  0.95221815  0.67305596  0.70062335     0.08300
H984        H  0.99417430  0.83396819  0.56589660     0.08300
H985        H  0.03849036  0.79845670  0.56570181     0.08300
H986        H  0.03529747  0.84065127  0.60249367     0.05000
C987        C  0.15293960  0.70409922  0.47892291    -0.20800
C988        C  0.16243745  0.67972188  0.44314391    -0.07300
C989        C  0.12945305  0.66700468  0.41707821     0.13500
C990        C  0.08916575  0.68232280  0.42476670    -0.20800
C991        C  0.08067781  0.71035839  0.45782019    -0.07300
C992        C  0.11261654  0.71999945  0.48623090     0.13500
C993        C  0.10431915  0.74739720  0.52380230    -0.24200
H994        H  0.17821945  0.71470447  0.49860507     0.14800
H995        H  0.06410702  0.67274357  0.40425196     0.14800
C996        C  0.13633716  0.63961812  0.37916350    -0.24100
H997        H  0.13271729  0.75186789  0.54294379     0.05000
H998        H  0.08006721  0.73290613  0.54401082     0.08300
H999        H  0.09346110  0.77860401  0.51323688     0.08300
H1000       H  0.16896081  0.62861214  0.37625502     0.08300
H1001       H  0.12813679  0.65710949  0.35031172     0.08300
H1002       H  0.11613498  0.61159522  0.38162110     0.05000
C1003       C  0.19782385  0.80922319  0.38132878    -0.20800
C1004       C  0.23731448  0.78934223  0.37951538    -0.07300
C1005       C  0.27296075  0.81468345  0.38032991     0.13500
C1006       C  0.26831348  0.85746154  0.38982332    -0.20800
C1007       C  0.22913670  0.87529116  0.40083421    -0.07300
C1008       C  0.19318745  0.85133901  0.39335360     0.13500
C1009       C  0.15004838  0.86877365  0.39999974    -0.24200
H1010       H  0.16997943  0.79046798  0.37792966     0.14800
H1011       H  0.29631615  0.87604953  0.39236495     0.14800
C1012       C  0.31594090  0.79667136  0.37420793    -0.24100
H1013       H  0.12569970  0.84600694  0.39074298     0.05000
H1014       H  0.14593744  0.89734099  0.38071422     0.08300
H1015       H  0.14495995  0.87631143  0.43363722     0.08300
H1016       H  0.31792240  0.78051539  0.34337653     0.08300
H1017       H  0.32301479  0.77421568  0.39968768     0.08300
H1018       H  0.34020094  0.82134815  0.37470972     0.05000
C1019       C  0.82010808  0.61374771  0.70362393    -0.20800
C1020       C  0.79272555  0.59528788  0.67448086    -0.07300
C1021       C  0.80680100  0.56038837  0.65132855     0.13500
C1022       C  0.84557538  0.54240665  0.66086037    -0.20800
C1023       C  0.87032841  0.55740799  0.69409928    -0.07300
C1024       C  0.85793616  0.59451698  0.71476110     0.13500
C1025       C  0.88358997  0.61325885  0.74935043    -0.24200
H1026       H  0.80921701  0.64035887  0.72182506     0.14800
H1027       H  0.85534700  0.51465091  0.64383896     0.14800
C1028       C  0.77941832  0.53975122  0.61920626    -0.24100
H1029       H  0.87039215  0.64344525  0.76058340     0.05000
H1030       H  0.91572801  0.61901375  0.73791500     0.08300
H1031       H  0.88456127  0.59154293  0.77642932     0.08300
H1032       H  0.77087895  0.56281585  0.59472994     0.08300
H1033       H  0.75070496  0.52766304  0.63442616     0.08300
H1034       H  0.79534912  0.51300083  0.60359760     0.05000
C1035       C  0.72965495  0.57068871  0.84986904    -0.20800
C1036       C  0.73120166  0.52698691  0.85263903    -0.07300
C1037       C  0.71530309  0.50290160  0.81898494     0.13500
C1038       C  0.69865007  0.52291722  0.78369392    -0.20800
C1039       C  0.69731553  0.56659617  0.78085623    -0.07300
C1040       C  0.71286098  0.59068274  0.81462272     0.13500
C1041       C  0.71259472  0.63779557  0.81386900    -0.24200
H1042       H  0.73945894  0.58941010  0.87639283     0.14800
H1043       H  0.68903548  0.50434693  0.75695811     0.14800
C1044       C  0.71543633  0.45578654  0.82045551    -0.24100
H1045       H  0.69520137  0.64983421  0.84161402     0.05000
H1046       H  0.69739495  0.65043919  0.78542200     0.08300
H1047       H  0.74504439  0.64957909  0.81496208     0.08300
H1048       H  0.69613455  0.44467355  0.84709645     0.08300
H1049       H  0.74779697  0.44434591  0.82395750     0.08300
H1050       H  0.70260401  0.44184945  0.79135178     0.05000
C1051       C  0.76471675  0.64073647  0.05997512    -0.20800
C1052       C  0.76817487  0.67072625  0.02799272    -0.07300
C1053       C  0.75512226  0.65946392  0.98713124     0.13500
C1054       C  0.73611430  0.62055751  0.98002639    -0.20800
C1055       C  0.73074349  0.59142443  0.01238063    -0.07300
C1056       C  0.74679786  0.60114998  0.05253967     0.13500
C1057       C  0.74373763  0.57031600  0.08806097    -0.24200
H1058       H  0.77292076  0.64956590  0.09171973     0.14800
H1059       H  0.72657165  0.61239151  0.94851626     0.14800
C1060       C  0.75908586  0.68914728  0.95070111    -0.24100
H1061       H  0.75752316  0.58289793  0.11734153     0.05000
H1062       H  0.76049172  0.54099686  0.07987212     0.08300
H1063       H  0.71057147  0.56324395  0.09449265     0.08300
H1064       H  0.77528426  0.71848591  0.95946161     0.08300
H1065       H  0.72768879  0.69718894  0.93878451     0.08300
H1066       H  0.77732891  0.67397949  0.92513245     0.05000
C1067       C  0.77992071  0.31932889  0.87190215    -0.20800
C1068       C  0.75025118  0.28776507  0.87402950    -0.07300
C1069       C  0.70760809  0.29932639  0.87883531     0.13500
C1070       C  0.69715032  0.33990740  0.89227521    -0.20800
C1071       C  0.72820049  0.36978095  0.89798725    -0.07300
C1072       C  0.76909571  0.36068009  0.88225609     0.13500
C1073       C  0.80275652  0.39316918  0.87746800    -0.24200
H1074       H  0.81229050  0.31125280  0.86630993     0.14800
H1075       H  0.66536735  0.34695577  0.90149604     0.14800
C1076       C  0.67303872  0.26782504  0.87474367    -0.24100
H1077       H  0.81576016  0.39161309  0.84511832     0.05000
H1078       H  0.82814636  0.38690265  0.90006257     0.08300
H1079       H  0.79120132  0.42550320  0.88196862     0.08300
H1080       H  0.65719828  0.26373418  0.90551342     0.08300
H1081       H  0.68468159  0.23693631  0.86374248     0.08300
H1082       H  0.65002643  0.27917328  0.85156306     0.05000
C1083       C  0.59944479  0.73346674  0.06742630    -0.20800
C1084       C  0.58549711  0.74086537  0.02655592    -0.07300
C1085       C  0.61048184  0.76536532  0.99929905     0.13500
C1086       C  0.64925220  0.78040865  0.01285658    -0.20800
C1087       C  0.66476075  0.77062073  0.05264469    -0.07300
C1088       C  0.63906295  0.74726005  0.08040601     0.13500
C1089       C  0.65484487  0.73444209  0.12288719    -0.24200
H1090       H  0.57966728  0.71626361  0.08894805     0.14800
H1091       H  0.66947704  0.79622045  0.99064630     0.14800
C1092       C  0.59706449  0.77409643  0.95490464    -0.24100
H1093       H  0.63075778  0.71749380  0.14127249     0.05000
H1094       H  0.66415358  0.76256565  0.14084207     0.08300
H1095       H  0.68225224  0.71350248  0.11936816     0.08300
H1096       H  0.56803778  0.79292165  0.95495683     0.08300
H1097       H  0.59162105  0.74411225  0.93818431     0.08300
H1098       H  0.62103232  0.79183177  0.93713087     0.05000
C1099       C  0.35220799  0.72644883  0.89018447    -0.20800
C1100       C  0.35495328  0.72604639  0.93406201    -0.07300
C1101       C  0.32131530  0.74218517  0.95807790     0.13500
C1102       C  0.28562054  0.75728653  0.93792334    -0.20800
C1103       C  0.28203583  0.75608610  0.89416826    -0.07300
C1104       C  0.31603560  0.74088953  0.87004404     0.13500
C1105       C  0.31346431  0.73879681  0.82293163    -0.24200
H1106       H  0.37860978  0.71593455  0.87161393     0.14800
H1107       H  0.25885463  0.76669840  0.95662498     0.14800
C1108       C  0.32246945  0.74207919  0.00531437    -0.24100
H1109       H  0.34288804  0.72704298  0.80866876     0.05000
H1110       H  0.30731351  0.77047315  0.81030923     0.08300
H1111       H  0.28796175  0.71753709  0.81336455     0.08300
H1112       H  0.34791600  0.76245619  0.01667760     0.08300
H1113       H  0.32755821  0.70962451  0.01652257     0.08300
H1114       H  0.29289928  0.75376381  0.01932060     0.05000
C1115       C  0.64182340  0.43332983  0.14180550    -0.20800
C1116       C  0.65840124  0.39603823  0.15743623    -0.07300
C1117       C  0.68336729  0.37106162  0.13027584     0.13500
C1118       C  0.69655714  0.38682881  0.09123804    -0.20800
C1119       C  0.68351671  0.42623876  0.07752326    -0.07300
C1120       C  0.65361840  0.44854623  0.10205859     0.13500
C1121       C  0.63585516  0.48980048  0.08776434    -0.24200
H1122       H  0.62322462  0.45287848  0.16254484     0.14800
H1123       H  0.71742020  0.36841042  0.07168547     0.14800
C1124       C  0.69974519  0.32911967  0.14393891    -0.24100
H1125       H  0.61585478  0.50451391  0.11225244     0.05000
H1126       H  0.61633059  0.48503921  0.05960505     0.08300
H1127       H  0.66138928  0.51179017  0.08016989     0.08300
H1128       H  0.68710555  0.31977882  0.17503024     0.08300
H1129       H  0.73422061  0.33016190  0.14579060     0.08300
H1130       H  0.69055864  0.30487396  0.12082239     0.05000
C1131       C  0.79812270  0.38166918  0.24074382    -0.20800
C1132       C  0.77144285  0.41598016  0.24676296    -0.07300
C1133       C  0.78526982  0.45620502  0.23482596     0.13500
C1134       C  0.82491560  0.46113413  0.21678829    -0.20800
C1135       C  0.85178298  0.42697565  0.21100578    -0.07300
C1136       C  0.83833693  0.38683750  0.22385717     0.13500
C1137       C  0.86692290  0.34961696  0.22068316    -0.24200
H1138       H  0.78685458  0.35050933  0.24782739     0.14800
H1139       H  0.83604969  0.49229855  0.20954274     0.14800
C1140       C  0.75787365  0.49407763  0.24107426    -0.24100
H1141       H  0.85125818  0.32032275  0.23070820     0.05000
H1142       H  0.89411142  0.35452675  0.24132911     0.08300
H1143       H  0.87768950  0.34560665  0.18774401     0.08300
H1144       H  0.74943647  0.49707130  0.27478254     0.08300
H1145       H  0.72905659  0.49103639  0.22234719     0.08300
H1146       H  0.77379516  0.52329715  0.23124941     0.05000
C1147       C  0.41889811  0.64984000  0.15958476    -0.20800
C1148       C  0.37906379  0.66394141  0.17066661    -0.07300
C1149       C  0.35660450  0.68819286  0.14138603     0.13500
C1150       C  0.37694386  0.70400572  0.10561628    -0.20800
C1151       C  0.41872901  0.69434760  0.09739729    -0.07300
C1152       C  0.43932534  0.66523124  0.12372890     0.13500
C1153       C  0.48395207  0.65243994  0.11583395    -0.24200
H1154       H  0.43629070  0.63148905  0.18207014     0.14800
H1155       H  0.36027340  0.72411512  0.08427461     0.14800
C1156       C  0.31198118  0.70012284  0.15008903    -0.24100
H1157       H  0.49610022  0.63234057  0.14136951     0.05000
H1158       H  0.50390843  0.68068366  0.11383882     0.08300
H1159       H  0.48661238  0.63427907  0.08626293     0.08300
H1160       H  0.30956755  0.71881641  0.17938913     0.08300
H1161       H  0.29299959  0.67133821  0.15355056     0.08300
H1162       H  0.29873487  0.71900354  0.12417660     0.05000
C1163       C  0.39068386  0.80281525  0.22952297    -0.20800
C1164       C  0.40644309  0.77571643  0.26067593    -0.07300
C1165       C  0.44432029  0.78596908  0.27999537     0.13500
C1166       C  0.46541795  0.82248992  0.26758375    -0.20800
C1167       C  0.45018594  0.84886482  0.23559861    -0.07300
C1168       C  0.41234112  0.83859843  0.21625317     0.13500
C1169       C  0.39452311  0.86539427  0.18191030    -0.24200
H1170       H  0.36212222  0.79447664  0.21365294     0.14800
H1171       H  0.49388605  0.83100938  0.28350314     0.14800
C1172       C  0.46318560  0.75788507  0.31261941    -0.24100
H1173       H  0.36427994  0.85314408  0.17062011     0.05000
H1174       H  0.41649504  0.86611566  0.15490375     0.08300
H1175       H  0.38942976  0.89776793  0.19340290     0.08300
H1176       H  0.46959580  0.72654460  0.29892173     0.08300
H1177       H  0.44132313  0.75465011  0.33952872     0.08300
H1178       H  0.49294687  0.77063061  0.32462858     0.05000
C1179       C  0.58860288  0.83305320  0.71800025    -0.20800
C1180       C  0.56842239  0.81084705  0.68555500    -0.07300
C1181       C  0.53597215  0.83094976  0.66403165     0.13500
C1182       C  0.52154124  0.87009016  0.67823492    -0.20800
C1183       C  0.53790060  0.88955935  0.71433677    -0.07300
C1184       C  0.57319810  0.87165367  0.73324372     0.13500
C1185       C  0.59422763  0.89270956  0.76964213    -0.24200
H1186       H  0.61332588  0.81756668  0.73500868     0.14800
H1187       H  0.49540591  0.88442005  0.66241131     0.14800
C1188       C  0.51385229  0.80929074  0.62859646    -0.24100
H1189       H  0.62203147  0.87494229  0.78004652     0.05000
H1190       H  0.57234140  0.89506441  0.79662323     0.08300
H1191       H  0.60443206  0.92455803  0.76035952     0.08300
H1192       H  0.49892645  0.78014990  0.64004286     0.08300
H1193       H  0.53647332  0.80132955  0.60335846     0.08300
H1194       H  0.48922980  0.82939706  0.61491328     0.05000
C1195       C  0.49361879  0.73838447  0.79408205    -0.20800
C1196       C  0.52519940  0.70985825  0.78203688    -0.07300
C1197       C  0.54995640  0.69162418  0.81331340     0.13500
C1198       C  0.54261142  0.70235490  0.85550332    -0.20800
C1199       C  0.51180311  0.73182393  0.86736515    -0.07300
C1200       C  0.48740692  0.75041320  0.83603642     0.13500
C1201       C  0.45493006  0.78289788  0.84661629    -0.24200
H1202       H  0.47572514  0.75384682  0.76988213     0.14800
H1203       H  0.56079521  0.68720650  0.87966352     0.14800
C1204       C  0.58507503  0.66222766  0.80214826    -0.24100
H1205       H  0.43856798  0.79417299  0.81820947     0.05000
H1206       H  0.47000795  0.81019975  0.86175658     0.08300
H1207       H  0.43137209  0.76969370  0.86836993     0.08300
H1208       H  0.60827096  0.67847183  0.78204434     0.08300
H1209       H  0.57264883  0.63478058  0.78494731     0.08300
H1210       H  0.60136301  0.65068800  0.83049556     0.05000
C1211       C  0.77891686  0.68897552  0.52699380    -0.20800
C1212       C  0.75065069  0.70531798  0.49811495    -0.07300
C1213       C  0.76575778  0.73160253  0.46564461     0.13500
C1214       C  0.80803108  0.74288369  0.46439084    -0.20800
C1215       C  0.83533675  0.72929402  0.49558913    -0.07300
C1216       C  0.82030313  0.70229185  0.52758805     0.13500
C1217       C  0.84714552  0.68932424  0.56418946    -0.24200
H1218       H  0.76726948  0.67037140  0.55295690     0.14800
H1219       H  0.81967694  0.76201228  0.43885700     0.14800
C1220       C  0.73700003  0.75022073  0.43366138    -0.24100
H1221       H  0.82890898  0.67250210  0.58858002     0.05000
H1222       H  0.86078942  0.71751025  0.57911749     0.08300
H1223       H  0.87240808  0.66791364  0.55394053     0.08300
H1224       H  0.73651681  0.78470978  0.43732851     0.08300
H1225       H  0.70472111  0.73838237  0.43715739     0.08300
H1226       H  0.74817658  0.74218091  0.40160196     0.05000
C1227       C  0.74056078  0.81499812  0.58317644    -0.20800
C1228       C  0.69750585  0.80530480  0.58426714    -0.07300
C1229       C  0.66913258  0.83815971  0.57913155     0.13500
C1230       C  0.68362884  0.87655470  0.56387038    -0.20800
C1231       C  0.72595761  0.88282526  0.55251324    -0.07300
C1232       C  0.75518664  0.85264325  0.56531155     0.13500
C1233       C  0.80094484  0.85799424  0.55676969    -0.24200
H1234       H  0.76271253  0.78995936  0.58856638     0.14800
H1235       H  0.66067079  0.90050020  0.55725984     0.14800
C1236       C  0.62308770  0.83216403  0.58517994    -0.24100
H1237       H  0.81926830  0.83085452  0.56819241     0.05000
H1238       H  0.81232804  0.88648674  0.57296492     0.08300
H1239       H  0.80653228  0.86090731  0.52249350     0.08300
H1240       H  0.61565061  0.80073239  0.59774417     0.08300
H1241       H  0.61111188  0.85571992  0.60792049     0.08300
H1242       H  0.60689324  0.83629979  0.55481383     0.05000
C1243       C  0.06652805  0.93657648  0.88157414    -0.20800
C1244       C  0.06303708  0.89242006  0.88201896    -0.07300
C1245       C  0.03200029  0.87666945  0.91024917     0.13500
C1246       C  0.00759465  0.90412257  0.93616304    -0.20800
C1247       C  0.01231006  0.94845905  0.93764293    -0.07300
C1248       C  0.04199214  0.96420231  0.90725555     0.13500
C1249       C  0.04846685  0.01042481  0.89967910    -0.24200
H1250       H  0.08838054  0.95067389  0.86023816     0.14800
H1251       H  0.98368645  0.88961789  0.95485726     0.14800
C1252       C  0.02337902  0.83032912  0.91378627    -0.24100
H1253       H  0.07291509  0.01641176  0.87567454     0.05000
H1254       H  0.05898649  0.02651227  0.92822395     0.08300
H1255       H  0.01984386  0.02501277  0.88738713     0.08300
H1256       H  0.05163710  0.81318392  0.92350220     0.08300
H1257       H  0.01186948  0.81756799  0.88377880     0.08300
H1258       H  0.99905064  0.82351988  0.93769585     0.05000
C1259       C  0.88638190  0.91704291  0.02618496    -0.20800
C1260       C  0.90572831  0.88873353  0.05399389    -0.07300
C1261       C  0.95030912  0.89287120  0.05519942     0.13500
C1262       C  0.97219617  0.92067235  0.02743087    -0.20800
C1263       C  0.95321661  0.94794204  0.99786645    -0.07300
C1264       C  0.90794320  0.94651208  0.99976409     0.13500
C1265       C  0.87937444  0.97555691  0.97620908    -0.24200
H1266       H  0.85267825  0.91650763  0.02557258     0.14800
H1267       H  0.00585020  0.92116950  0.02892135     0.14800
C1268       C  0.97669825  0.87027793  0.08661353    -0.24100
H1269       H  0.84762470  0.97620180  0.99019987     0.05000
H1270       H  0.87506362  0.96404562  0.94379748     0.08300
H1271       H  0.88975259  0.00839587  0.97757114     0.08300
H1272       H  0.97968735  0.83693305  0.07751115     0.08300
H1273       H  0.96366931  0.87456839  0.11867793     0.08300
H1274       H  0.00892208  0.88272699  0.08755711     0.05000
C1275       C  0.93075327  0.07825597  0.91361435    -0.20800
C1276       C  0.90475735  0.06016619  0.88300921    -0.07300
C1277       C  0.91029785  0.01583626  0.87790440     0.13500
C1278       C  0.93690193  0.99251614  0.90527738    -0.20800
C1279       C  0.95954581  0.00993879  0.93923509    -0.07300
C1280       C  0.95894859  0.05537038  0.93953306     0.13500
C1281       C  0.98939752  0.08305648  0.96243081    -0.24200
H1282       H  0.93005536  0.11205758  0.91650712     0.14800
H1283       H  0.93855449  0.95891296  0.90111247     0.14800
C1284       C  0.88944931  0.99127211  0.84380423    -0.24100
H1285       H  0.99690949  0.11102973  0.94319577     0.05000
H1286       H  0.01998423  0.06859559  0.96719213     0.08300
H1287       H  0.97562493  0.09473945  0.99220083     0.08300
H1288       H  0.89441808  0.00662858  0.81299354     0.08300
H1289       H  0.85605203  0.98726752  0.85164054     0.08300
H1290       H  0.90248885  0.95918253  0.84082219     0.05000
C1291       C  0.05872291  0.99622079  0.00272529    -0.20800
C1292       C  0.01448808  0.00097325  0.00332120    -0.07300
C1293       C  0.99961249  0.02668341  0.03730985     0.13500
C1294       C  0.02760033  0.05056665  0.06264920    -0.20800
C1295       C  0.07173599  0.04999618  0.05811987    -0.07300
C1296       C  0.08674880  0.02028739  0.02801132     0.13500
C1297       C  0.13279196  0.01281068  0.02204515    -0.24200
H1298       H  0.07257619  0.97355208  0.98181217     0.14800
H1299       H  0.01360503  0.06888222  0.08719124     0.14800
C1300       C  0.95388863  0.02973708  0.04826634    -0.24100
H1301       H  0.13920055  0.98878686  0.99761462     0.05000
H1302       H  0.14686101  0.00138909  0.05148262     0.08300
H1303       H  0.14854701  0.04182071  0.01182685     0.08300
H1304       H  0.94256905  0.99953951  0.06078202     0.08300
H1305       H  0.93549593  0.03906377  0.02075683     0.08300
H1306       H  0.94762342  0.05344770  0.07302664     0.05000
loop_ 
_geom_bond_atom_site_label_1 
_geom_bond_atom_site_label_2 
_geom_bond_distance 
_geom_bond_site_symmetry_2 
_ccdc_geom_bond_type 
C1            C2   1.564       .  S
C1            C7   1.571       .  S
C1            C5   1.565       .  S
C1         C1295   1.614       .  S
C2            H9   1.085       .  S
C2            C3   1.380       .  D
C3            C4   1.527       .  S
C3          C350   1.494       .  S
C4            C8   1.535       .  S
C4            C6   1.522       .  S
C4           H10   1.112       .  S
C5           H11   1.079       .  S
C5            C6   1.367       .  D
C6          C344   1.482       .  S
C7           H12   1.085       .  S
C7            C8   1.386       .  D
C8          C356   1.507       .  S
C13          C14   1.561       .  S
C13          C19   1.564       .  S
C13          C17   1.568       .  S
C13        C1276   1.608       .  S
C14          H21   1.086       .  S
C14          C15   1.376       .  D
C15          C16   1.529       .  S
C15         C266   1.493       .  S
C16          C20   1.530       .  S
C16          C18   1.533       .  S
C16          H22   1.112       .  S
C17          H23   1.073       .  S
C17          C18   1.376       .  D
C18         C194   1.495       .  S
C19          H24   1.086       .  S
C19          C20   1.380       .  D
C20         C332   1.500       .  S
C25          C26   1.572       .  S
C25          C31   1.562       .  S
C25          C29   1.572       .  S
C25        C1260   1.622       .  S
C26          H33   1.072       .  S
C26          C27   1.376       .  D
C27          C28   1.525       .  S
C27         C240   1.490       .  S
C28          C32   1.532       .  S
C28          C30   1.535       .  S
C28          H34   1.112       .  S
C29          H35   1.085       .  S
C29          C30   1.384       .  D
C30         C102   1.512       .  S
C31          H36   1.086       .  S
C31          C32   1.378       .  D
C32         C286   1.500       .  S
C37          C38   1.570       .  S
C37          C43   1.561       .  S
C37          C41   1.557       .  S
C37        C1244   1.605       .  S
C38          H45   1.081       .  S
C38          C39   1.379       .  D
C39          C40   1.535       .  S
C39         C312   1.499       .  S
C40          C44   1.532       .  S
C40          C42   1.531       .  S
C40          H46   1.112       .  S
C41          H47   1.085       .  S
C41          C42   1.375       .  D
C42         C148   1.497       .  S
C43          H48   1.085       .  S
C43          C44   1.377       .  D
C44         C220   1.494       .  S
C49        C1247   1.639   1_655  S
C49        C1263   1.649       .  S
C49        C1279   1.630   1_565  S
C49        C1292   1.630   1_666  S
C50         C391   1.492       .  S
C50          N51   1.368       .  A
C50          N55   1.376       .  A
N51          C52   1.362       .  A
C52          N53   1.336       .  A
C52        C1212   1.463       .  S
N53          C54   1.339       .  A
C54          N55   1.368       .  A
C54        C1228   1.481       .  S
C56         C388   1.503       .  S
C56          N57   1.380       .  A
C56          N61   1.376       .  A
N57          C58   1.368       .  A
C58          N59   1.332       .  A
C58        C1180   1.477       .  S
N59          C60   1.335       .  A
C60          N61   1.369       .  A
C60        C1196   1.473       .  S
C62         C405   1.493       .  S
C62          N63   1.378       .  A
C62          N67   1.372       .  A
N63          C64   1.371       .  A
C64          N65   1.335       .  A
C64        C1164   1.483       .  S
N65          C66   1.335       .  A
C66          N67   1.361       .  A
C66        C1148   1.462       .  S
C68         C376   1.498       .  S
C68          N69   1.377       .  A
C68          N73   1.374       .  A
N69          C70   1.368       .  A
C70          N71   1.337       .  A
C70        C1116   1.472       .  S
N71          C72   1.334       .  A
C72          N73   1.366       .  A
C72        C1132   1.467       .  S
O74         Ni82   1.969   1_554  S
O74          C84   1.295       .  A
O75         Ni82   1.971       .  S
O75          C85   1.295       .  A
O76         Ni82   1.855       .  S
O76          C86   1.264       .  A
O77         Ni82   1.868   1_554  S
O77          C87   1.265       .  A
O78         Ni83   1.965   1_554  S
O78          C87   1.294       .  A
O79         Ni83   1.967       .  S
O79          C86   1.295       .  A
O80         Ni83   1.865       .  S
O80          C85   1.265       .  A
O81         Ni83   1.880   1_554  S
O81          C84   1.268       .  A
Ni82        Ni83   2.388       .  S
C84        C1084   1.484       .  S
C85        C1100   1.477       .  S
C86        C1199   1.478       .  S
C87        C1151   1.479       .  S
O88         Ni96   1.972       .  S
O88          C98   1.296       .  A
O89         Ni96   1.971       .  S
O89          C99   1.296       .  A
O90         Ni96   1.882   1_554  S
O90         C100   1.268       .  A
O91         Ni96   1.849       .  S
O91         C101   1.262       .  A
O92         Ni97   1.973       .  S
O92         C101   1.295       .  A
O93         Ni97   1.966   1_554  S
O93         C100   1.294       .  A
O94         Ni97   1.868       .  S
O94          C99   1.267       .  A
O95         Ni97   1.873       .  S
O95          C98   1.266       .  A
Ni96        Ni97   2.386       .  S
C98        C1055   1.481   1_556  S
C99        C1071   1.492       .  S
C100       C1119   1.488       .  S
C101       C1036   1.467       .  S
C102        N103   1.379       .  A
C102        N107   1.380       .  A
N103        C104   1.370       .  A
C104        N105   1.334       .  A
C104       C1052   1.474       .  S
N105        C106   1.334       .  A
C106        N107   1.371       .  A
C106       C1087   1.475       .  S
C108        C393   1.497       .  S
C108        N109   1.373       .  A
C108        N113   1.376       .  A
N109        C110   1.366       .  A
C110        N111   1.335       .  A
C110       C1039   1.465       .  S
N111        C112   1.337       .  A
C112        N113   1.369       .  A
C112       C1020   1.479       .  S
C114        C400   1.498       .  S
C114        N115   1.373       .  A
C114        N119   1.378       .  A
N115        C116   1.365       .  A
C116        N117   1.336       .  A
C116        C988   1.469       .  S
N117        C118   1.338       .  A
C118        N119   1.370       .  A
C118       C1004   1.495       .  S
O120       Ni128   1.968       .  S
O120        C130   1.295       .  A
O121       Ni128   1.960       .  S
O121        C131   1.293       .  A
O122       Ni128   1.869   1_455  S
O122        C132   1.266       .  A
O123       Ni128   1.848       .  S
O123        C133   1.263       .  A
O124       Ni129   1.968       .  S
O124        C133   1.294       .  A
O125       Ni129   1.967   1_455  S
O125        C132   1.294       .  A
O126       Ni129   1.863       .  S
O126        C131   1.265       .  A
O127       Ni129   1.864       .  S
O127        C130   1.264       .  A
Ni128      Ni129   2.386       .  S
C130        C972   1.489       .  S
C131        C956   1.468       .  S
C132        C991   1.477       .  S
C133       C1215   1.471       .  S
O134       Ni142   1.974   1_455  S
O134        C144   1.295       .  A
O135       Ni142   1.970       .  S
O135        C145   1.295       .  A
O136       Ni142   1.886       .  S
O136        C146   1.271       .  A
O137       Ni142   1.865   1_455  S
O137        C147   1.266       .  A
O138       Ni143   1.958   1_455  S
O138        C147   1.292       .  A
O139       Ni143   1.959       .  S
O139        C146   1.293       .  A
O140       Ni143   1.882       .  S
O140        C145   1.269       .  A
O141       Ni143   1.865   1_455  S
O141        C144   1.269       .  A
Ni142      Ni143   2.382       .  S
C144        C940   1.494       .  S
C145        C924   1.495       .  S
C146       C1023   1.494       .  S
C147        C908   1.469       .  S
C148        N149   1.372       .  A
C148        N153   1.378       .  A
N149        C150   1.365       .  A
C150        N151   1.335       .  A
C150        C975   1.470   1_455  S
N151        C152   1.336       .  A
C152        N153   1.366       .  A
C152        C943   1.484       .  S
C154        C369   1.498       .  S
C154        N155   1.371       .  A
C154        N159   1.378       .  A
N155        C156   1.363       .  A
C156        N157   1.335       .  A
C156        C911   1.462       .  S
N157        C158   1.338       .  A
C158        N159   1.371       .  A
C158        C892   1.489       .  S
C160        C381   1.498       .  S
C160        N161   1.374       .  A
C160        N165   1.373       .  A
N161        C162   1.367       .  A
C162        N163   1.338       .  A
C162        C860   1.480       .  S
N163        C164   1.340       .  A
C164        N165   1.367       .  A
C164        C876   1.470       .  S
O166       Ni174   1.965   1_545  S
O166        C176   1.294       .  A
O167       Ni174   1.963       .  S
O167        C177   1.294       .  A
O168       Ni174   1.861       .  S
O168        C178   1.267       .  A
O169       Ni174   1.871   1_545  S
O169        C179   1.267       .  A
O170       Ni175   1.972   1_545  S
O170        C179   1.296       .  A
O171       Ni175   1.982       .  S
O171        C178   1.297       .  A
O172       Ni175   1.890       .  S
O172        C177   1.271       .  A
O173       Ni175   1.872   1_545  S
O173        C176   1.267       .  A
Ni174      Ni175   2.383       .  S
C176        C844   1.476       .  S
C177        C831   1.492       .  S
C178       C1231   1.500       .  S
C179        C863   1.486       .  S
O180       Ni188   1.957       .  S
O180        C190   1.292       .  A
O181       Ni188   1.960   1_565  S
O181        C191   1.294       .  A
O182       Ni188   1.859       .  S
O182        C192   1.267       .  A
O183       Ni188   1.879   1_565  S
O183        C193   1.269       .  A
O184       Ni189   1.972       .  S
O184        C193   1.296       .  A
O185       Ni189   1.976   1_545  S
O185        C192   1.296       .  A
O186       Ni189   1.867       .  S
O186        C191   1.267       .  A
O187       Ni189   1.881   1_545  S
O187        C190   1.269       .  A
Ni188      Ni189   2.381   1_545  S
C190        C796   1.482       .  S
C191        C812   1.484       .  S
C192        C780   1.496       .  S
C193       C1183   1.493       .  S
C194        N195   1.372       .  A
C194        N199   1.374       .  A
N195        C196   1.365       .  A
C196        N197   1.340       .  A
C196        C799   1.470       .  S
N197        C198   1.337       .  A
C198        N199   1.368       .  A
C198        C847   1.473       .  S
C200        C364   1.503       .  S
C200        N201   1.377       .  A
C200        N205   1.377       .  A
N201        C202   1.370       .  A
C202        N203   1.335       .  A
C202        C764   1.472       .  S
N203        C204   1.332       .  A
C204        N205   1.364       .  A
C204        C783   1.481       .  S
O206       Ni214   1.970       .  S
O206        C216   1.295       .  A
O207       Ni214   1.971   1_554  S
O207        C217   1.296       .  A
O208       Ni214   1.863       .  S
O208        C218   1.266       .  A
O209       Ni214   1.864   1_554  S
O209        C219   1.267       .  A
O210       Ni215   1.974   1_554  S
O210        C219   1.296       .  A
O211       Ni215   1.979       .  S
O211        C218   1.298       .  A
O212       Ni215   1.866   1_554  S
O212        C217   1.267       .  A
O213       Ni215   1.866       .  S
O213        C216   1.265       .  A
Ni214      Ni215   2.378       .  S
C216        C748   1.481       .  S
C217        C735   1.497       .  S
C218        C895   1.503       .  S
C219        C716   1.500       .  S
C220        N221   1.374       .  A
C220        N225   1.374       .  A
N221        C222   1.367       .  A
C222        N223   1.338       .  A
C222        C751   1.474       .  S
N223        C224   1.336       .  A
C224        N225   1.366       .  A
C224       C1103   1.469       .  S
O226       Ni234   1.967       .  S
O226        C236   1.294       .  A
O227       Ni234   1.975       .  S
O227        C237   1.297       .  A
O228       Ni234   1.855       .  S
O228        C238   1.263       .  A
O229       Ni234   1.869   1_455  S
O229        C239   1.265       .  A
O230       Ni235   1.972   1_455  S
O230        C239   1.296       .  A
O231       Ni235   1.968       .  S
O231        C238   1.295       .  A
O232       Ni235   1.853       .  S
O232        C237   1.262       .  A
O233       Ni235   1.851       .  S
O233        C236   1.262       .  A
Ni234      Ni235   2.387       .  S
C236        C684   1.466   1_655  S
C237        C700   1.480       .  S
C238       C1135   1.467       .  S
C239        C668   1.482       .  S
C240        N241   1.370       .  A
C240        N245   1.373       .  A
N241        C242   1.363       .  A
C242        N243   1.337       .  A
C242        C959   1.465       .  S
N243        C244   1.338       .  A
C244        N245   1.367       .  A
C244        C703   1.468       .  S
C246        C403   1.495       .  S
C246        N247   1.374       .  A
C246        N251   1.376       .  A
N247        C248   1.365       .  A
C248        N249   1.335       .  A
C248        C671   1.465       .  S
N249        C250   1.334       .  A
C250        N251   1.367       .  A
C250        C719   1.481       .  S
O252       Ni260   1.972       .  S
O252        C262   1.296       .  A
O253       Ni260   1.973       .  S
O253        C263   1.296       .  A
O254       Ni260   1.840   1_554  S
O254        C264   1.262       .  A
O255       Ni260   1.865       .  S
O255        C265   1.266       .  A
O256       Ni261   1.973       .  S
O256        C265   1.296       .  A
O257       Ni261   1.974   1_554  S
O257        C264   1.296       .  A
O258       Ni261   1.879       .  S
O258        C263   1.267       .  A
O259       Ni261   1.856       .  S
O259        C262   1.266       .  A
Ni260      Ni261   2.384       .  S
C262        C652   1.487       .  S
C263        C636   1.486   1_556  S
C264        C620   1.475       .  S
C265        C767   1.492       .  S
C266        N267   1.376       .  A
C266        N271   1.371       .  A
N267        C268   1.364       .  A
C268        N269   1.335       .  A
C268       C1068   1.478       .  S
N269        C270   1.336       .  A
C270        N271   1.365       .  A
C270        C655   1.470       .  S
O272       Ni280   1.969       .  S
O272        C282   1.296       .  A
O273       Ni280   1.970   1_545  S
O273        C283   1.295       .  A
O274       Ni280   1.868       .  S
O274        C284   1.265       .  A
O275       Ni280   1.857       .  S
O275        C285   1.265       .  A
O276       Ni281   1.973       .  S
O276        C285   1.296       .  A
O277       Ni281   1.965       .  S
O277        C284   1.294       .  A
O278       Ni281   1.869   1_545  S
O278        C283   1.265       .  A
O279       Ni281   1.859       .  S
O279        C282   1.265       .  A
Ni280      Ni281   2.388       .  S
C282       C1167   1.481       .  S
C283        C572   1.476       .  S
C284        C604   1.472       .  S
C285        C588   1.482       .  S
C286        N287   1.379       .  A
C286        N291   1.372       .  A
N287        C288   1.371       .  A
C288        N289   1.339       .  A
C288        C828   1.482       .  S
N289        C290   1.337       .  A
C290        N291   1.365       .  A
C290        C607   1.468       .  S
C292        C379   1.493       .  S
C292        N293   1.373       .  A
C292        N297   1.377       .  A
N293        C294   1.363       .  A
C294        N295   1.330       .  A
C294        C623   1.464       .  S
N295        C296   1.334       .  A
C296        N297   1.369       .  A
C296        C575   1.466       .  S
O298       Ni306   1.973   1_545  S
O298        C308   1.296       .  A
O299       Ni306   1.975       .  S
O299        C309   1.296       .  A
O300       Ni306   1.868       .  S
O300        C310   1.267       .  A
O301       Ni306   1.879   1_545  S
O301        C311   1.269       .  A
O302       Ni307   1.970   1_545  S
O302        C311   1.295       .  A
O303       Ni307   1.972       .  S
O303        C310   1.296       .  A
O304       Ni307   1.868       .  S
O304        C309   1.268       .  A
O305       Ni307   1.868   1_545  S
O305        C308   1.267       .  A
Ni306      Ni307   2.375       .  S
C308        C540   1.501       .  S
C309        C556   1.505       .  S
C310       C1007   1.502       .  S
C311        C524   1.497       .  S
C312        N313   1.379       .  A
C312        N317   1.373       .  A
N313        C314   1.370       .  A
C314        N315   1.337       .  A
C314        C559   1.489       .  S
N315        C316   1.335       .  A
C316        N317   1.364       .  A
C316        C815   1.467       .  S
O318       Ni326   1.977   1_455  S
O318        C328   1.297       .  A
O319       Ni326   1.979       .  S
O319        C329   1.297       .  A
O320       Ni326   1.857   1_455  S
O320        C330   1.262       .  A
O321       Ni326   1.875       .  S
O321        C331   1.267       .  A
O322       Ni327   1.962       .  S
O322        C331   1.294       .  A
O323       Ni327   1.962   1_455  S
O323        C330   1.295       .  A
O324       Ni327   1.856       .  S
O324        C329   1.263       .  A
O325       Ni327   1.852   1_455  S
O325        C328   1.264       .  A
Ni326      Ni327   2.385       .  S
C328        C492   1.489       .  S
C329        C508   1.478       .  S
C330        C476   1.477       .  S
C331        C879   1.479       .  S
C332        N333   1.374       .  A
C332        N337   1.378       .  A
N333        C334   1.367       .  A
C334        N335   1.336       .  A
C334        C511   1.468       .  S
N335        C336   1.335       .  A
C336        N337   1.368       .  A
C336        C927   1.475       .  S
C338        C367   1.493       .  S
C338        N339   1.368       .  A
C338        N343   1.377       .  A
N339        C340   1.362       .  A
C340        N341   1.338       .  A
C340        C479   1.467       .  S
N341        C342   1.336       .  A
C342        N343   1.369       .  A
C342        C527   1.475       .  S
C344        N345   1.375       .  A
C344        N349   1.368       .  A
N345        C346   1.367       .  A
C346        N347   1.334       .  A
C346        C495   1.470       .  S
N347        C348   1.335       .  A
C348        N349   1.358       .  A
C348        C687   1.451       .  S
C350        N351   1.377       .  A
C350        N355   1.374       .  A
N351        C352   1.366       .  A
C352        N353   1.334       .  A
C352        C543   1.480       .  S
N353        C354   1.334       .  A
C354        N355   1.367       .  A
C354        C591   1.465       .  S
C356        N357   1.376       .  A
C356        N361   1.380       .  A
N357        C358   1.367       .  A
C358        N359   1.338       .  A
C358        C732   1.484       .  S
N359        C360   1.336       .  A
C360        N361   1.373       .  A
C360        C639   1.481       .  S
C362        C363   1.570       .  S
C362        C368   1.567       .  S
C362        C366   1.558       .  S
C362        C460   1.612       .  S
C363        H370   1.085       .  S
C363        C364   1.384       .  D
C364        C365   1.531       .  S
C365        C369   1.533       .  S
C365        C367   1.533       .  S
C365        H371   1.111       .  S
C366        H372   1.086       .  S
C366        C367   1.373       .  D
C368        H373   1.071       .  S
C368        C369   1.373       .  D
C374        C375   1.563       .  S
C374        C380   1.575       .  S
C374        C378   1.565       .  S
C374        C444   1.615       .  S
C375        H382   1.086       .  S
C375        C376   1.377       .  D
C376        C377   1.531       .  S
C377        C381   1.528       .  S
C377        C379   1.528       .  S
C377        H383   1.112       .  S
C378        H384   1.086       .  S
C378        C379   1.378       .  D
C380        H385   1.072       .  S
C380        C381   1.377       .  D
C386        C387   1.569       .  S
C386        C392   1.560       .  S
C386        C390   1.569       .  S
C386        C428   1.616       .  S
C387        H394   1.085       .  S
C387        C388   1.384       .  D
C388        C389   1.530       .  S
C389        C393   1.537       .  S
C389        C391   1.524       .  S
C389        H395   1.112       .  S
C390        H396   1.079       .  S
C390        C391   1.373       .  D
C392        H397   1.085       .  S
C392        C393   1.379       .  D
C398        C399   1.561       .  S
C398        C404   1.563       .  S
C398        C402   1.570       .  S
C398        C412   1.604       .  S
C399        H406   1.085       .  S
C399        C400   1.379       .  D
C400        C401   1.533       .  S
C401        C405   1.529       .  S
C401        C403   1.532       .  S
C401        H407   1.112       .  S
C402        H408   1.081       .  S
C402        C403   1.378       .  D
C404        H409   1.086       .  S
C404        C405   1.375       .  D
C410        C415   1.637       .  S
C410        C431   1.648       .  S
C410        C447   1.635       .  S
C410        C463   1.637       .  S
C411        C412   1.421       .  A
C411        C416   1.438       .  A
C411        H418   1.076       .  S
C412        C413   1.430       .  A
C413        C420   1.510       .  S
C413        C414   1.429       .  A
C414        C415   1.427       .  A
C414        H419   1.075       .  S
C415        C416   1.443       .  A
C416        C417   1.511       .  S
C417        H421   1.110       .  S
C417        H422   1.107       .  S
C417        H423   1.102       .  S
C420        H424   1.102       .  S
C420        H425   1.110       .  S
C420        H426   1.111       .  S
C427        C428   1.420       .  A
C427        C432   1.430       .  A
C427        H434   1.073       .  S
C428        C429   1.432       .  A
C429        C436   1.509       .  S
C429        C430   1.440       .  A
C430        C431   1.433       .  A
C430        H435   1.076       .  S
C431        C432   1.443       .  A
C432        C433   1.506       .  S
C433        H437   1.111       .  S
C433        H438   1.089       .  S
C433        H439   1.110       .  S
C436        H440   1.107       .  S
C436        H441   1.107       .  S
C436        H442   1.111       .  S
C443        C444   1.414       .  A
C443        C448   1.436       .  A
C443        H450   1.084       .  S
C444        C445   1.437       .  A
C445        C452   1.501       .  S
C445        C446   1.435       .  A
C446        C447   1.422       .  A
C446        H451   1.083       .  S
C447        C448   1.456       .  A
C448        C449   1.515       .  S
C449        H453   1.111       .  S
C449        H454   1.103       .  S
C449        H455   1.103       .  S
C452        H456   1.109       .  S
C452        H457   1.109       .  S
C452        H458   1.111       .  S
C459        C460   1.412       .  A
C459        C464   1.434       .  A
C459        H466   1.084       .  S
C460        C461   1.438       .  A
C461        C468   1.501       .  S
C461        C462   1.433       .  A
C462        C463   1.423       .  A
C462        H467   1.083       .  S
C463        C464   1.455       .  A
C464        C465   1.511       .  S
C465        H469   1.111       .  S
C465        H470   1.105       .  S
C465        H471   1.103       .  S
C468        H472   1.110       .  S
C468        H473   1.109       .  S
C468        H474   1.111       .  S
C475        C476   1.396       .  A
C475        C480   1.397       .  A
C475        H482   1.085       .  S
C476        C477   1.430       .  A
C477        C484   1.509       .  S
C477        C478   1.401       .  A
C478        C479   1.392       .  A
C478        H483   1.084       .  S
C479        C480   1.419       .  A
C480        C481   1.509       .  S
C481        H485   1.111       .  S
C481        H486   1.111       .  S
C481        H487   1.110       .  S
C484        H488   1.100       .  S
C484        H489   1.109       .  S
C484        H490   1.111       .  S
C491        C492   1.413       .  A
C491        C496   1.398       .  A
C491        H498   1.085       .  S
C492        C493   1.410       .  A
C493        C500   1.505       .  S
C493        C494   1.413       .  A
C494        C495   1.415       .  A
C494        H499   1.084       .  S
C495        C496   1.407       .  A
C496        C497   1.507       .  S
C497        H501   1.110       .  S
C497        H502   1.107       .  S
C497        H503   1.111   1_455  S
C500        H504   1.111       .  S
C500        H505   1.110       .  S
C500        H506   1.111       .  S
C507        C508   1.406       .  A
C507        C512   1.403       .  A
C507        H514   1.081       .  S
C508        C509   1.410       .  A
C509        C516   1.498   1_655  S
C509        C510   1.407       .  A
C510        C511   1.407       .  A
C510        H515   1.085       .  S
C511        C512   1.410       .  A
C512        C513   1.503       .  S
C513        H517   1.111       .  S
C513        H518   1.111       .  S
C513        H519   1.108       .  S
C516        H520   1.110       .  S
C516        H521   1.110       .  S
C516        H522   1.110       .  S
C523        C524   1.414       .  A
C523        C528   1.405       .  A
C523        H530   1.084       .  S
C524        C525   1.414       .  A
C525        C532   1.505       .  S
C525        C526   1.411       .  A
C526        C527   1.411       .  A
C526        H531   1.085       .  S
C527        C528   1.406       .  A
C528        C529   1.507       .  S
C529        H533   1.111       .  S
C529        H534   1.110       .  S
C529        H535   1.110       .  S
C532        H536   1.111       .  S
C532        H537   1.106       .  S
C532        H538   1.110       .  S
C539        C540   1.421       .  A
C539        C544   1.404       .  A
C539        H546   1.083       .  S
C540        C541   1.410       .  A
C541        C548   1.506       .  S
C541        C542   1.409       .  A
C542        C543   1.416       .  A
C542        H547   1.085       .  S
C543        C544   1.401       .  A
C544        C545   1.507       .  S
C545        H549   1.111       .  S
C545        H550   1.110       .  S
C545        H551   1.110       .  S
C548        H552   1.109       .  S
C548        H553   1.110       .  S
C548        H554   1.111       .  S
C555        C556   1.422       .  A
C555        C560   1.407       .  A
C555        H562   1.083       .  S
C556        C557   1.411       .  A
C557        C564   1.506       .  S
C557        C558   1.410       .  A
C558        C559   1.417       .  A
C558        H563   1.085       .  S
C559        C560   1.404       .  A
C560        C561   1.507       .  S
C561        H565   1.111       .  S
C561        H566   1.110       .  S
C561        H567   1.111       .  S
C564        H568   1.110       .  S
C564        H569   1.110       .  S
C564        H570   1.111       .  S
C571        C572   1.405       .  A
C571        C576   1.406       .  A
C571        H578   1.081       .  S
C572        C573   1.410       .  A
C573        C580   1.507       .  S
C573        C574   1.409       .  A
C574        C575   1.411       .  A
C574        H579   1.085       .  S
C575        C576   1.411       .  A
C576        C577   1.507       .  S
C577        H581   1.111       .  S
C577        H582   1.109       .  S
C577        H583   1.110       .  S
C580        H584   1.110       .  S
C580        H585   1.110       .  S
C580        H586   1.111       .  S
C587        C588   1.412   1_545  A
C587        C592   1.402       .  A
C587        H594   1.085       .  S
C588        C589   1.415       .  A
C589        C596   1.507       .  S
C589        C590   1.408       .  A
C590        C591   1.410   1_565  A
C590        H595   1.085       .  S
C591        C592   1.408       .  A
C592        C593   1.509       .  S
C593        H597   1.111       .  S
C593        H598   1.110       .  S
C593        H599   1.110       .  S
C596        H600   1.105       .  S
C596        H601   1.110       .  S
C596        H602   1.111       .  S
C603        C604   1.404       .  A
C603        C608   1.406       .  A
C603        H610   1.085       .  S
C604        C605   1.412       .  A
C605        C612   1.505   1_565  S
C605        C606   1.405       .  A
C606        C607   1.405       .  A
C606        H611   1.085       .  S
C607        C608   1.414       .  A
C608        C609   1.505       .  S
C609        H613   1.110       .  S
C609        H614   1.110       .  S
C609        H615   1.109       .  S
C612        H616   1.109       .  S
C612        H617   1.110       .  S
C612        H618   1.111       .  S
C619        C620   1.411       .  A
C619        C624   1.399       .  A
C619        H626   1.084       .  S
C620        C621   1.409       .  A
C621        C628   1.506       .  S
C621        C622   1.409       .  A
C622        C623   1.412       .  A
C622        H627   1.084       .  S
C623        C624   1.406       .  A
C624        C625   1.508       .  S
C625        H629   1.111       .  S
C625        H630   1.110       .  S
C625        H631   1.110       .  S
C628        H632   1.109       .  S
C628        H633   1.110       .  S
C628        H634   1.111       .  S
C635        C636   1.409   1_556  A
C635        C640   1.415       .  A
C635        H642   1.084       .  S
C636        C637   1.412       .  A
C637        C644   1.506       .  S
C637        C638   1.407       .  A
C638        C639   1.409       .  A
C638        H643   1.085       .  S
C639        C640   1.413   1_554  A
C640        C641   1.505       .  S
C641        H645   1.111       .  S
C641        H646   1.110       .  S
C641        H647   1.110       .  S
C644        H648   1.110       .  S
C644        H649   1.109       .  S
C644        H650   1.111       .  S
C651        C652   1.412       .  A
C651        C656   1.399       .  A
C651        H658   1.084       .  S
C652        C653   1.410       .  A
C653        C660   1.506   1_556  S
C653        C654   1.411       .  A
C654        C655   1.415       .  A
C654        H659   1.084   1_556  S
C655        C656   1.409       .  A
C656        C657   1.509       .  S
C657        H661   1.111       .  S
C657        H662   1.110       .  S
C657        H663   1.110       .  S
C660        H664   1.110       .  S
C660        H665   1.110       .  S
C660        H666   1.111       .  S
C667        C668   1.398       .  A
C667        C672   1.403       .  A
C667        H674   1.079       .  S
C668        C669   1.422       .  A
C669        C676   1.508       .  S
C669        C670   1.407       .  A
C670        C671   1.399       .  A
C670        H675   1.083       .  S
C671        C672   1.417       .  A
C672        C673   1.506       .  S
C673        H677   1.110       .  S
C673        H678   1.110       .  S
C673        H679   1.111       .  S
C676        H680   1.109       .  S
C676        H681   1.107       .  S
C676        H682   1.111       .  S
C683        C684   1.399   1_655  A
C683        C688   1.402       .  A
C683        H690   1.081       .  S
C684        C685   1.417       .  A
C685        C692   1.505       .  S
C685        C686   1.400       .  A
C686        C687   1.398       .  A
C686        H691   1.085       .  S
C687        C688   1.413   1_455  A
C688        C689   1.505       .  S
C689        H693   1.110       .  S
C689        H694   1.110       .  S
C689        H695   1.110       .  S
C692        H696   1.110       .  S
C692        H697   1.109       .  S
C692        H698   1.111       .  S
C699        C700   1.402       .  A
C699        C704   1.410       .  A
C699        H706   1.084       .  S
C700        C701   1.423       .  A
C701        C708   1.511       .  S
C701        C702   1.402       .  A
C702        C703   1.397       .  A
C702        H707   1.085       .  S
C703        C704   1.418       .  A
C704        C705   1.507       .  S
C705        H709   1.111       .  S
C705        H710   1.111       .  S
C705        H711   1.110       .  S
C708        H712   1.108       .  S
C708        H713   1.107   1_655  S
C708        H714   1.111   1_655  S
C715        C716   1.420       .  A
C715        C720   1.403       .  A
C715        H722   1.083       .  S
C716        C717   1.410       .  A
C717        C724   1.506       .  S
C717        C718   1.410       .  A
C718        C719   1.417       .  A
C718        H723   1.085       .  S
C719        C720   1.404       .  A
C720        C721   1.508       .  S
C721        H725   1.111       .  S
C721        H726   1.110       .  S
C721        H727   1.110       .  S
C724        H728   1.110       .  S
C724        H729   1.110       .  S
C724        H730   1.111       .  S
C731        C732   1.416       .  A
C731        C736   1.408       .  A
C731        H738   1.085       .  S
C732        C733   1.403       .  A
C733        C740   1.507       .  S
C733        C734   1.405       .  A
C734        C735   1.420       .  A
C734        H739   1.083       .  S
C735        C736   1.409       .  A
C736        C737   1.506       .  S
C737        H741   1.111       .  S
C737        H742   1.110       .  S
C737        H743   1.109       .  S
C740        H744   1.111       .  S
C740        H745   1.110       .  S
C740        H746   1.111       .  S
C747        C748   1.410       .  A
C747        C752   1.405       .  A
C747        H754   1.085       .  S
C748        C749   1.407       .  A
C749        C756   1.505       .  S
C749        C750   1.408       .  A
C750        C751   1.412       .  A
C750        H755   1.084       .  S
C751        C752   1.409       .  A
C752        C753   1.507       .  S
C753        H757   1.111       .  S
C753        H758   1.110       .  S
C753        H759   1.110       .  S
C756        H760   1.111       .  S
C756        H761   1.110       .  S
C756        H762   1.111       .  S
C763        C764   1.417       .  A
C763        C768   1.412       .  A
C763        H770   1.085       .  S
C764        C765   1.405       .  A
C765        C772   1.507       .  S
C765        C766   1.403       .  A
C766        C767   1.415       .  A
C766        H771   1.084       .  S
C767        C768   1.409       .  A
C768        C769   1.505       .  S
C769        H773   1.109       .  S
C769        H774   1.110       .  S
C769        H775   1.110       .  S
C772        H776   1.109       .  S
C772        H777   1.110       .  S
C772        H778   1.111       .  S
C779        C780   1.419       .  A
C779        C784   1.400       .  A
C779        H786   1.083       .  S
C780        C781   1.408       .  A
C781        C788   1.504       .  S
C781        C782   1.411       .  A
C782        C783   1.419       .  A
C782        H787   1.085       .  S
C783        C784   1.400       .  A
C784        C785   1.504       .  S
C785        H789   1.111       .  S
C785        H790   1.109       .  S
C785        H791   1.110       .  S
C788        H792   1.110       .  S
C788        H793   1.110       .  S
C788        H794   1.111       .  S
C795        C796   1.409       .  A
C795        C800   1.404       .  A
C795        H802   1.084       .  S
C796        C797   1.409       .  A
C797        C804   1.506       .  S
C797        C798   1.408       .  A
C798        C799   1.410       .  A
C798        H803   1.084       .  S
C799        C800   1.409       .  A
C800        C801   1.508       .  S
C801        H805   1.111   1_545  S
C801        H806   1.110       .  S
C801        H807   1.110       .  S
C804        H808   1.110       .  S
C804        H809   1.110       .  S
C804        H810   1.111       .  S
C811        C812   1.413       .  A
C811        C816   1.405       .  A
C811        H818   1.084       .  S
C812        C813   1.412       .  A
C813        C820   1.504   1_565  S
C813        C814   1.403       .  A
C814        C815   1.408       .  A
C814        H819   1.085       .  S
C815        C816   1.406       .  A
C816        C817   1.506       .  S
C817        H821   1.111       .  S
C817        H822   1.110       .  S
C817        H823   1.110       .  S
C820        H824   1.110   1_545  S
C820        H825   1.105       .  S
C820        H826   1.111       .  S
C827        C828   1.413       .  A
C827        C832   1.411       .  A
C827        H834   1.085       .  S
C828        C829   1.412       .  A
C829        C836   1.505       .  S
C829        C830   1.409       .  A
C830        C831   1.410       .  A
C830        H835   1.085       .  S
C831        C832   1.409       .  A
C832        C833   1.504       .  S
C833        H837   1.111       .  S
C833        H838   1.110       .  S
C833        H839   1.110       .  S
C836        H840   1.110       .  S
C836        H841   1.108       .  S
C836        H842   1.111       .  S
C843        C844   1.409       .  A
C843        C848   1.409       .  A
C843        H850   1.084       .  S
C844        C845   1.415       .  A
C845        C852   1.505   1_545  S
C845        C846   1.403       .  A
C846        C847   1.404       .  A
C846        H851   1.085       .  S
C847        C848   1.409       .  A
C848        C849   1.502       .  S
C849        H853   1.111       .  S
C849        H854   1.106       .  S
C849        H855   1.110       .  S
C852        H856   1.104       .  S
C852        H857   1.111       .  S
C852        H858   1.110       .  S
C859        C860   1.414       .  A
C859        C864   1.411       .  A
C859        H866   1.084       .  S
C860        C861   1.410       .  A
C861        C868   1.508       .  S
C861        C862   1.405       .  A
C862        C863   1.410       .  A
C862        H867   1.084       .  S
C863        C864   1.408       .  A
C864        C865   1.505       .  S
C865        H869   1.111       .  S
C865        H870   1.111       .  S
C865        H871   1.110       .  S
C868        H872   1.109       .  S
C868        H873   1.110       .  S
C868        H874   1.111       .  S
C875        C876   1.409       .  A
C875        C880   1.403       .  A
C875        H882   1.085       .  S
C876        C877   1.410       .  A
C877        C884   1.507       .  S
C877        C878   1.407       .  A
C878        C879   1.410       .  A
C878        H883   1.085       .  S
C879        C880   1.407       .  A
C880        C881   1.503       .  S
C881        H885   1.111       .  S
C881        H886   1.108       .  S
C881        H887   1.110       .  S
C884        H888   1.109       .  S
C884        H889   1.110       .  S
C884        H890   1.111       .  S
C891        C892   1.417       .  A
C891        C896   1.409       .  A
C891        H898   1.084       .  S
C892        C893   1.404       .  A
C893        C900   1.506       .  S
C893        C894   1.406       .  A
C894        C895   1.422       .  A
C894        H899   1.083       .  S
C895        C896   1.409       .  A
C896        C897   1.505       .  S
C897        H901   1.111       .  S
C897        H902   1.110       .  S
C897        H903   1.110       .  S
C900        H904   1.110       .  S
C900        H905   1.110       .  S
C900        H906   1.111       .  S
C907        C908   1.400       .  A
C907        C912   1.402       .  A
C907        H914   1.085       .  S
C908        C909   1.416       .  A
C909        C916   1.508       .  S
C909        C910   1.405       .  A
C910        C911   1.402       .  A
C910        H915   1.085       .  S
C911        C912   1.416       .  A
C912        C913   1.507       .  S
C913        H917   1.111       .  S
C913        H918   1.110       .  S
C913        H919   1.111       .  S
C916        H920   1.109       .  S
C916        H921   1.110       .  S
C916        H922   1.110       .  S
C923        C924   1.400       .  A
C923        C928   1.411       .  A
C923        H930   1.084       .  S
C924        C925   1.428       .  A
C925        C932   1.511       .  S
C925        C926   1.407       .  A
C926        C927   1.397       .  A
C926        H931   1.085       .  S
C927        C928   1.421       .  A
C928        C929   1.508       .  S
C929        H933   1.111       .  S
C929        H934   1.110       .  S
C929        H935   1.110       .  S
C932        H936   1.109       .  S
C932        H937   1.110       .  S
C932        H938   1.111       .  S
C939        C940   1.419       .  A
C939        C944   1.406       .  A
C939        H946   1.084       .  S
C940        C941   1.407       .  A
C941        C948   1.505       .  S
C941        C942   1.410       .  A
C942        C943   1.419       .  A
C942        H947   1.085       .  S
C943        C944   1.402       .  A
C944        C945   1.506       .  S
C945        H949   1.111       .  S
C945        H950   1.110       .  S
C945        H951   1.110       .  S
C948        H952   1.110       .  S
C948        H953   1.110       .  S
C948        H954   1.111       .  S
C955        C956   1.401       .  A
C955        C960   1.402       .  A
C955        H962   1.085       .  S
C956        C957   1.415       .  A
C957        C964   1.508   1_655  S
C957        C958   1.406       .  A
C958        C959   1.403       .  A
C958        H963   1.084       .  S
C959        C960   1.414       .  A
C960        C961   1.507       .  S
C961        H965   1.111       .  S
C961        H966   1.110       .  S
C961        H967   1.110       .  S
C964        H968   1.110       .  S
C964        H969   1.110       .  S
C964        H970   1.111       .  S
C971        C972   1.400       .  A
C971        C976   1.405       .  A
C971        H978   1.084       .  S
C972        C973   1.431       .  A
C973        C980   1.511   1_655  S
C973        C974   1.403       .  A
C974        C975   1.394       .  A
C974        H979   1.085   1_655  S
C975        C976   1.421       .  A
C976        C977   1.504       .  S
C977        H981   1.110       .  S
C977        H982   1.110       .  S
C977        H983   1.110       .  S
C980        H984   1.109   1_455  S
C980        H985   1.109       .  S
C980        H986   1.111       .  S
C987        C988   1.411       .  A
C987        C992   1.409       .  A
C987        H994   1.084       .  S
C988        C989   1.411       .  A
C989        C996   1.506       .  S
C989        C990   1.403       .  A
C990        C991   1.407       .  A
C990        H995   1.085       .  S
C991        C992   1.408       .  A
C992        C993   1.504       .  S
C993        H997   1.111       .  S
C993        H998   1.111       .  S
C993        H999   1.110       .  S
C996       H1000   1.108       .  S
C996       H1001   1.111       .  S
C996       H1002   1.110       .  S
C1003      C1004   1.419       .  A
C1003      C1008   1.406       .  A
C1003      H1010   1.084       .  S
C1004      C1005   1.405       .  A
C1005      C1012   1.507       .  S
C1005      C1006   1.407       .  A
C1006      C1007   1.422       .  A
C1006      H1011   1.083       .  S
C1007      C1008   1.409       .  A
C1008      C1009   1.506       .  S
C1009      H1013   1.111       .  S
C1009      H1014   1.110       .  S
C1009      H1015   1.110       .  S
C1012      H1016   1.111       .  S
C1012      H1017   1.110       .  S
C1012      H1018   1.111       .  S
C1019      C1020   1.413       .  A
C1019      C1024   1.409       .  A
C1019      H1026   1.085       .  S
C1020      C1021   1.408       .  A
C1021      C1028   1.507       .  S
C1021      C1022   1.407       .  A
C1022      C1023   1.413       .  A
C1022      H1027   1.084       .  S
C1023      C1024   1.411       .  A
C1024      C1025   1.506       .  S
C1025      H1029   1.111       .  S
C1025      H1030   1.109       .  S
C1025      H1031   1.110       .  S
C1028      H1032   1.110       .  S
C1028      H1033   1.110       .  S
C1028      H1034   1.111       .  S
C1035      C1036   1.401       .  A
C1035      C1040   1.405       .  A
C1035      H1042   1.084       .  S
C1036      C1037   1.418       .  A
C1037      C1044   1.507       .  S
C1037      C1038   1.404       .  A
C1038      C1039   1.400       .  A
C1038      H1043   1.085       .  S
C1039      C1040   1.417       .  A
C1040      C1041   1.506       .  S
C1041      H1045   1.111       .  S
C1041      H1046   1.110       .  S
C1041      H1047   1.110       .  S
C1044      H1048   1.108       .  S
C1044      H1049   1.108       .  S
C1044      H1050   1.111       .  S
C1051      C1052   1.405       .  A
C1051      C1056   1.412       .  A
C1051      H1058   1.084       .  S
C1052      C1053   1.417   1_554  A
C1053      C1060   1.506       .  S
C1053      C1054   1.406       .  A
C1054      C1055   1.401   1_556  A
C1054      H1059   1.084       .  S
C1055      C1056   1.418       .  A
C1056      C1057   1.506       .  S
C1057      H1061   1.111       .  S
C1057      H1062   1.110       .  S
C1057      H1063   1.108       .  S
C1060      H1064   1.110       .  S
C1060      H1065   1.110       .  S
C1060      H1066   1.111       .  S
C1067      C1068   1.391       .  A
C1067      C1072   1.404       .  A
C1067      H1074   1.085       .  S
C1068      C1069   1.426       .  A
C1069      C1076   1.507       .  S
C1069      C1070   1.405       .  A
C1070      C1071   1.395       .  A
C1070      H1075   1.084       .  S
C1071      C1072   1.432       .  A
C1072      C1073   1.509       .  S
C1073      H1077   1.111       .  S
C1073      H1078   1.110       .  S
C1073      H1079   1.106       .  S
C1076      H1080   1.110       .  S
C1076      H1081   1.110       .  S
C1076      H1082   1.110       .  S
C1083      C1084   1.401       .  A
C1083      C1088   1.413       .  A
C1083      H1090   1.084       .  S
C1084      C1085   1.418   1_554  A
C1085      C1092   1.509       .  S
C1085      C1086   1.407   1_556  A
C1086      C1087   1.402       .  A
C1086      H1091   1.085   1_554  S
C1087      C1088   1.421       .  A
C1088      C1089   1.507       .  S
C1089      H1093   1.111       .  S
C1089      H1094   1.108       .  S
C1089      H1095   1.110       .  S
C1092      H1096   1.109       .  S
C1092      H1097   1.111       .  S
C1092      H1098   1.111       .  S
C1099      C1100   1.402       .  A
C1099      C1104   1.409       .  A
C1099      H1106   1.084       .  S
C1100      C1101   1.416       .  A
C1101      C1108   1.507   1_556  S
C1101      C1102   1.404       .  A
C1102      C1103   1.401       .  A
C1102      H1107   1.085       .  S
C1103      C1104   1.416       .  A
C1104      C1105   1.506       .  S
C1105      H1109   1.111       .  S
C1105      H1110   1.108       .  S
C1105      H1111   1.110       .  S
C1108      H1112   1.109       .  S
C1108      H1113   1.110       .  S
C1108      H1114   1.111       .  S
C1115      C1116   1.399       .  A
C1115      C1120   1.408       .  A
C1115      H1122   1.084       .  S
C1116      C1117   1.420       .  A
C1117      C1124   1.506       .  S
C1117      C1118   1.407       .  A
C1118      C1119   1.399       .  A
C1118      H1123   1.084       .  S
C1119      C1120   1.424       .  A
C1120      C1121   1.509       .  S
C1121      H1125   1.111       .  S
C1121      H1126   1.109       .  S
C1121      H1127   1.108       .  S
C1124      H1128   1.110       .  S
C1124      H1129   1.111       .  S
C1124      H1130   1.110       .  S
C1131      C1132   1.403       .  A
C1131      C1136   1.407       .  A
C1131      H1138   1.085       .  S
C1132      C1133   1.414       .  A
C1133      C1140   1.507       .  S
C1133      C1134   1.404       .  A
C1134      C1135   1.402       .  A
C1134      H1139   1.084       .  S
C1135      C1136   1.416       .  A
C1136      C1137   1.504       .  S
C1137      H1141   1.111       .  S
C1137      H1142   1.109       .  S
C1137      H1143   1.110       .  S
C1140      H1144   1.110       .  S
C1140      H1145   1.110       .  S
C1140      H1146   1.111       .  S
C1147      C1148   1.399       .  A
C1147      C1152   1.405       .  A
C1147      H1154   1.085       .  S
C1148      C1149   1.416       .  A
C1149      C1156   1.507       .  S
C1149      C1150   1.406       .  A
C1150      C1151   1.400       .  A
C1150      H1155   1.081       .  S
C1151      C1152   1.421       .  A
C1152      C1153   1.510       .  S
C1153      H1157   1.111       .  S
C1153      H1158   1.111       .  S
C1153      H1159   1.109       .  S
C1156      H1160   1.110       .  S
C1156      H1161   1.111       .  S
C1156      H1162   1.111       .  S
C1163      C1164   1.415       .  A
C1163      C1168   1.405       .  A
C1163      H1170   1.085       .  S
C1164      C1165   1.407       .  A
C1165      C1172   1.505       .  S
C1165      C1166   1.408       .  A
C1166      C1167   1.414       .  A
C1166      H1171   1.084       .  S
C1167      C1168   1.407       .  A
C1168      C1169   1.507       .  S
C1169      H1173   1.111       .  S
C1169      H1174   1.110       .  S
C1169      H1175   1.109       .  S
C1172      H1176   1.110       .  S
C1172      H1177   1.110       .  S
C1172      H1178   1.111       .  S
C1179      C1180   1.415       .  A
C1179      C1184   1.413       .  A
C1179      H1186   1.084       .  S
C1180      C1181   1.407       .  A
C1181      C1188   1.507       .  S
C1181      C1182   1.406       .  A
C1182      C1183   1.412       .  A
C1182      H1187   1.084       .  S
C1183      C1184   1.409       .  A
C1184      C1185   1.505       .  S
C1185      H1189   1.111       .  S
C1185      H1190   1.110       .  S
C1185      H1191   1.111       .  S
C1188      H1192   1.110       .  S
C1188      H1193   1.109       .  S
C1188      H1194   1.111       .  S
C1195      C1196   1.413       .  A
C1195      C1200   1.404       .  A
C1195      H1202   1.085       .  S
C1196      C1197   1.407       .  A
C1197      C1204   1.507       .  S
C1197      C1198   1.406       .  A
C1198      C1199   1.414       .  A
C1198      H1203   1.084       .  S
C1199      C1200   1.406       .  A
C1200      C1201   1.507       .  S
C1201      H1205   1.111       .  S
C1201      H1206   1.110       .  S
C1201      H1207   1.108       .  S
C1204      H1208   1.110       .  S
C1204      H1209   1.110       .  S
C1204      H1210   1.111       .  S
C1211      C1212   1.399       .  A
C1211      C1216   1.398       .  A
C1211      H1218   1.085       .  S
C1212      C1213   1.419       .  A
C1213      C1220   1.504       .  S
C1213      C1214   1.407       .  A
C1214      C1215   1.400       .  A
C1214      H1219   1.084       .  S
C1215      C1216   1.421       .  A
C1216      C1217   1.514       .  S
C1217      H1221   1.111       .  S
C1217      H1222   1.111       .  S
C1217      H1223   1.108       .  S
C1220      H1224   1.109       .  S
C1220      H1225   1.110       .  S
C1220      H1226   1.110       .  S
C1227      C1228   1.419       .  A
C1227      C1232   1.413       .  A
C1227      H1234   1.085       .  S
C1228      C1229   1.400       .  A
C1229      C1236   1.504       .  S
C1229      C1230   1.401       .  A
C1230      C1231   1.420       .  A
C1230      H1235   1.084       .  S
C1231      C1232   1.408       .  A
C1232      C1233   1.504       .  S
C1233      H1237   1.111       .  S
C1233      H1238   1.110       .  S
C1233      H1239   1.110       .  S
C1236      H1240   1.109       .  S
C1236      H1241   1.110       .  S
C1236      H1242   1.110       .  S
C1243      C1244   1.417       .  A
C1243      C1248   1.434       .  A
C1243      H1250   1.075       .  S
C1244      C1245   1.432       .  A
C1245      C1252   1.512       .  S
C1245      C1246   1.433       .  A
C1246      C1247   1.427       .  A
C1246      H1251   1.076   1_455  S
C1247      C1248   1.447       .  A
C1248      C1249   1.513   1_565  S
C1249      H1253   1.110       .  S
C1249      H1254   1.100       .  S
C1249      H1255   1.105       .  S
C1252      H1256   1.106       .  S
C1252      H1257   1.106       .  S
C1252      H1258   1.110   1_455  S
C1259      C1260   1.414       .  A
C1259      C1264   1.441   1_554  A
C1259      H1266   1.084       .  S
C1260      C1261   1.440       .  A
C1261      C1268   1.502       .  S
C1261      C1262   1.438       .  A
C1262      C1263   1.425   1_554  A
C1262      H1267   1.083   1_655  S
C1263      C1264   1.457       .  A
C1264      C1265   1.509       .  S
C1265      H1269   1.111       .  S
C1265      H1270   1.106       .  S
C1265      H1271   1.103   1_565  S
C1268      H1272   1.108       .  S
C1268      H1273   1.110       .  S
C1268      H1274   1.111   1_655  S
C1275      C1276   1.413       .  A
C1275      C1280   1.432       .  A
C1275      H1282   1.085       .  S
C1276      C1277   1.437       .  A
C1277      C1284   1.502   1_545  S
C1277      C1278   1.435   1_545  A
C1278      C1279   1.422   1_565  A
C1278      H1283   1.083       .  S
C1279      C1280   1.453       .  A
C1280      C1281   1.512       .  S
C1281      H1285   1.112       .  S
C1281      H1286   1.097   1_655  S
C1281      H1287   1.108       .  S
C1284      H1288   1.110   1_565  S
C1284      H1289   1.108       .  S
C1284      H1290   1.111       .  S
C1291      C1292   1.429   1_565  A
C1291      C1296   1.437   1_565  A
C1291      H1298   1.077   1_554  S
C1292      C1293   1.437   1_455  A
C1293      C1300   1.511       .  S
C1293      C1294   1.434   1_655  A
C1294      C1295   1.425       .  A
C1294      H1299   1.072       .  S
C1295      C1296   1.429       .  A
C1296      C1297   1.509       .  S
C1297      H1301   1.110   1_544  S
C1297      H1302   1.107       .  S
C1297      H1303   1.106       .  S
C1300      H1304   1.107   1_545  S
C1300      H1305   1.102       .  S
C1300      H1306   1.110       .  S
