geometry optimzed in LAMMPS
_audit_creation_date              2020-12-01 
_audit_creation_method            'lammps2cif' 
_symmetry_space_group_name_H-M    'P1' 
_symmetry_Int_Tables_number       1 
_symmetry_cell_setting            triclinic 
loop_ 
_symmetry_equiv_pos_as_xyz 
  x,y,z 
_cell_length_a                    81.82294366 
_cell_length_b                    81.76743435923703 
_cell_length_c                    81.78343171707628 
_cell_angle_alpha                 90.00187597528377 
_cell_angle_beta                  89.97783121129609 
_cell_angle_gamma                 89.91712857980919 
loop_ 
_atom_site_label 
_atom_site_type_symbol 
_atom_site_fract_x 
_atom_site_fract_y 
_atom_site_fract_z 
_atom_site_charge 
C1          C  0.22350512  0.74611016  0.75722025     0.80100
N2          N  0.23125386  0.75056901  0.77120209    -0.78200
C3          C  0.24481889  0.74249550  0.77639864     0.82500
N4          N  0.25062824  0.72973796  0.76740654    -0.78200
C5          C  0.24297207  0.72507247  0.75338704     0.82600
N6          N  0.22942743  0.73332761  0.74841775    -0.79900
C7          C  0.74055478  0.72345811  0.29800806     0.80100
N8          N  0.74903332  0.71795000  0.28478391    -0.78200
C9          C  0.74407167  0.70439702  0.27651499     0.82500
N10         N  0.73047364  0.69634539  0.28163356    -0.78200
C11         C  0.72183790  0.70167419  0.29479903     0.82600
N12         N  0.72695685  0.71525510  0.30289194    -0.79900
C13         C  0.70156997  0.24310544  0.77759686     0.80100
N14         N  0.71529156  0.25065945  0.78310908    -0.78200
C15         C  0.72305843  0.24532454  0.79679925     0.82500
N16         N  0.71694831  0.23224077  0.80500853    -0.78200
C17         C  0.70321326  0.22453907  0.79972012     0.82600
N18         N  0.69561724  0.23003578  0.78597895    -0.79900
N19         N  0.82391908  0.66447341  0.11931901    -0.27400
N20         N  0.82772463  0.64967062  0.12456181    -0.35300
C21         C  0.82290967  0.64817616  0.14023843     0.00900
C22         C  0.81570632  0.66278090  0.14516239     0.06900
C23         C  0.81663560  0.67278873  0.13147825    -0.06200
H24         H  0.82452904  0.63720021  0.14743098     0.07600
H25         H  0.81217103  0.68517029  0.13023834     0.08800
Cu26       Cu  0.83917852  0.63224270  0.10996956     0.44200
Cu27       Cu  0.82825076  0.67277914  0.09574840     0.42000
Cu28       Cu  0.84683080  0.64430933  0.06775479     0.43900
N29         N  0.85105106  0.61755249  0.09291366    -0.34800
N30         N  0.85383093  0.62196727  0.07762064    -0.29100
C31         C  0.86191581  0.60987642  0.06993806    -0.05200
C32         C  0.86440345  0.59712199  0.08088157     0.07000
C33         C  0.85729185  0.60251732  0.09534469     0.00800
H34         H  0.86574077  0.61049200  0.05730263     0.08500
H35         H  0.85673920  0.59611739  0.10689617     0.07600
N36         N  0.83943501  0.66767296  0.06106160    -0.36300
N37         N  0.83273714  0.67815285  0.07137207    -0.28400
C38         C  0.82964900  0.69224644  0.06347126    -0.03700
C39         C  0.83464384  0.69062801  0.04732252     0.04900
C40         C  0.84076823  0.67480629  0.04630464     0.03000
H41         H  0.82419653  0.70286532  0.06917101     0.08100
H42         H  0.84607621  0.66891116  0.03572407     0.07000
N43         N  0.02492287  0.85440357  0.67451440    -0.27400
N44         N  0.04011792  0.85130792  0.66998563    -0.35300
C45         C  0.04233822  0.85691060  0.65466237     0.00900
C46         C  0.02782941  0.86393686  0.64927028     0.06900
C47         C  0.01709866  0.86205189  0.66226792    -0.06200
H48         H  0.05378739  0.85613532  0.64810093     0.07600
H49         H  0.00450127  0.86599148  0.66293737     0.08800
Cu50       Cu  0.05716797  0.84003034  0.68514792     0.44200
Cu51       Cu  0.01525913  0.84855011  0.69718836     0.42000
Cu52       Cu  0.04245307  0.83092045  0.72646363     0.43900
N53         N  0.07138352  0.82926587  0.70331156    -0.34800
N54         N  0.06599437  0.82606908  0.71821649    -0.29100
C55         C  0.07800995  0.81891276  0.72683990    -0.05200
C56         C  0.09171158  0.81745940  0.71695247     0.07000
C57         C  0.08701374  0.82422481  0.70210282     0.00800
H58         H  0.07672121  0.81497922  0.73939197     0.08500
H59         H  0.09427814  0.82518837  0.69109667     0.07600
N60         N  0.01800105  0.83566458  0.73147345    -0.36300
N61         N  0.00799487  0.84212988  0.72058952    -0.28400
C62         C  0.99302716  0.84357380  0.72721761    -0.03700
C63         C  0.99352521  0.83770948  0.74315033     0.04900
C64         C  0.00965552  0.83279931  0.74536454     0.03000
H65         H  0.98258540  0.84846939  0.72076491     0.08100
H66         H  0.01502010  0.82748962  0.75621453     0.07000
N67         N  0.62032088  0.02506975  0.90652863    -0.27400
N68         N  0.61602468  0.04036228  0.90352670    -0.35300
C69         C  0.60075799  0.04283501  0.90916068     0.00900
C70         C  0.59510283  0.02836848  0.91601832     0.06900
C71         C  0.60791361  0.01740166  0.91408419    -0.06200
H72         H  0.59428479  0.05433749  0.90824149     0.07600
H73         H  0.60835210  0.00479176  0.91803416     0.08800
Cu74       Cu  0.63119878  0.05712420  0.89191366     0.44200
Cu75       Cu  0.64292004  0.01519576  0.90051876     0.42000
Cu76       Cu  0.67169280  0.04222350  0.88105902     0.43900
N77         N  0.64876203  0.07116835  0.88007197    -0.34800
N78         N  0.66345988  0.06571733  0.87615078    -0.29100
C79         C  0.67177165  0.07770131  0.86858382    -0.05200
C80         C  0.66186789  0.09146843  0.86765418     0.07000
C81         C  0.64734822  0.08678995  0.87510401     0.00800
H82         H  0.68414649  0.07638143  0.86414460     0.08500
H83         H  0.63645014  0.09409760  0.87674883     0.07600
N84         N  0.67684325  0.01800303  0.88656046    -0.36300
N85         N  0.66629133  0.00807585  0.89366131    -0.28400
C86         C  0.67320224  0.99324166  0.89536811    -0.03700
C87         C  0.68893478  0.99378430  0.88899917     0.04900
C88         C  0.69075417  0.00976650  0.88354753     0.03000
H89         H  0.66707414  0.98284622  0.90074376     0.08100
H90         H  0.70134720  0.01511943  0.87775238     0.07000
N91         N  0.86282425  0.82853831  0.86873935    -0.27400
N92         N  0.85630769  0.84151765  0.86165612    -0.35300
C93         C  0.86499668  0.84523968  0.84821727     0.00900
C94         C  0.87768499  0.83406885  0.84668066     0.06900
C95         C  0.87585076  0.82363603  0.85995808    -0.06200
H96         H  0.86225091  0.85543245  0.84025191     0.07600
H97         H  0.88355242  0.81338858  0.86322850     0.08800
Cu98       Cu  0.83616388  0.85390609  0.87075071     0.44200
Cu99       Cu  0.85386178  0.81844853  0.89027091     0.42000
Cu100      Cu  0.82017022  0.84023816  0.90960451     0.43900
N101        N  0.81646924  0.86479920  0.88237905    -0.34800
N102        N  0.81064322  0.85990103  0.89662143    -0.29100
C103        C  0.79783025  0.86939195  0.90068900    -0.05200
C104        C  0.79543425  0.88086969  0.88839605     0.07000
C105        C  0.80755427  0.87752741  0.87700416     0.00800
H106        H  0.79080268  0.86794233  0.91179033     0.08500
H107        H  0.80971554  0.88372456  0.86553073     0.07600
N108        N  0.83067609  0.81909816  0.91903778    -0.36300
N109        N  0.84278262  0.81108326  0.91192307    -0.28400
C110        C  0.84646323  0.79782115  0.92094036    -0.03700
C111        C  0.83621670  0.79743338  0.93446359     0.04900
C112        C  0.82637752  0.81117363  0.93279346     0.03000
H113        H  0.85600120  0.78919045  0.91786015     0.08100
H114        H  0.81664919  0.81509550  0.94084422     0.07000
C115        C  0.50310129  0.48084499  0.55301260     0.80100
N116        N  0.48977701  0.48520291  0.56194419    -0.78200
C117        C  0.48060079  0.49842159  0.55771365     0.82500
N118        N  0.48488527  0.50731484  0.54432257    -0.78200
C119        C  0.49820356  0.50315045  0.53526200     0.82600
N120        N  0.50721723  0.48990072  0.53970546    -0.79900
C121        C  0.46566308  0.99766125  0.99560157     0.80100
N122        N  0.45637405  0.98439914  0.99189027    -0.78200
C123        C  0.44353290  0.98003694  0.00150959     0.82500
N124        N  0.43999861  0.98917918  0.01496688    -0.78200
C125        C  0.44915757  0.00250393  0.01885321     0.82600
N126        N  0.46198198  0.00660474  0.00911789    -0.79900
N127        N  0.12234824  0.42084202  0.14147240    -0.27400
N128        N  0.11805978  0.40545916  0.14394594    -0.35300
C129        C  0.10319949  0.40299874  0.13732051     0.00900
C130        C  0.09779848  0.41754711  0.13033659     0.06900
C131        C  0.11037275  0.42854388  0.13326080    -0.06200
H132        H  0.09680919  0.39144613  0.13773608     0.07600
H133        H  0.11087309  0.44129092  0.12980838     0.08800
Cu134      Cu  0.13241403  0.38857174  0.15663557     0.44200
Cu135      Cu  0.14415549  0.43109232  0.14933617     0.42000
Cu136      Cu  0.17038407  0.40495699  0.17269218     0.43900
N137        N  0.14869315  0.37511622  0.17098276    -0.34800
N138        N  0.16240354  0.38129523  0.17684860    -0.29100
C139        C  0.17014689  0.36983967  0.18570884    -0.05200
C140        C  0.16094626  0.35560176  0.18551887     0.07000
C141        C  0.14739263  0.35946604  0.17599071     0.00800
H142        H  0.18171750  0.37185138  0.19174656     0.08500
H143        H  0.13724590  0.35157211  0.17295839     0.07600
N144        N  0.17646909  0.42875357  0.16658024    -0.36300
N145        N  0.16683756  0.43840921  0.15794218    -0.28400
C146        C  0.17431608  0.45288068  0.15575372    -0.03700
C147        C  0.18946454  0.45235191  0.16340653     0.04900
C148        C  0.19033120  0.43679369  0.17014775     0.03000
H149        H  0.16905710  0.46296377  0.14900341     0.08100
H150        H  0.20035696  0.43151551  0.17695899     0.07000
N151        N  0.56391889  0.62368214  0.33658848    -0.27400
N152        N  0.56951974  0.62067503  0.35144086    -0.35300
C153        C  0.58494983  0.62628113  0.35251579     0.00900
C154        C  0.58932079  0.63315807  0.33759230     0.06900
C155        C  0.57557922  0.63124295  0.32784463    -0.06200
H156        H  0.59241106  0.62527335  0.36337586     0.07600
H157        H  0.57409509  0.63487520  0.31522560     0.08800
Cu158      Cu  0.55602641  0.60856424  0.36934545     0.44200
Cu159      Cu  0.54081457  0.61726057  0.32846766     0.42000
Cu160      Cu  0.51618420  0.59371365  0.35587401     0.43900
N161        N  0.54048329  0.59445577  0.38378607    -0.34800
N162        N  0.52616838  0.58898261  0.37870618    -0.29100
C163        C  0.51927842  0.58007274  0.39065029    -0.05200
C164        C  0.52968822  0.57983755  0.40404710     0.07000
C165        C  0.54304027  0.58915152  0.39917100     0.00800
H166        H  0.50749798  0.57423089  0.38951165     0.08500
H167        H  0.55390685  0.59184590  0.40618065     0.07600
N168        N  0.50818900  0.60105353  0.33295269    -0.36300
N169        N  0.51727145  0.60981459  0.32290626    -0.28400
C170        C  0.50870460  0.61294215  0.30923663    -0.03700
C171        C  0.49338461  0.60579519  0.31067758     0.04900
C172        C  0.49357192  0.59833575  0.32594327     0.03000
H173        H  0.51338297  0.61995019  0.29905922     0.08100
H174        H  0.48378847  0.59158905  0.33170721     0.07000
N175        N  0.32344193  0.78165935  0.93481017    -0.27400
N176        N  0.32720565  0.79631388  0.92910749    -0.35300
C177        C  0.32146629  0.79768454  0.91373210     0.00900
C178        C  0.31364711  0.78321348  0.90953849     0.06900
C179        C  0.31520619  0.77337733  0.92326687    -0.06200
H180        H  0.32274375  0.80853230  0.90627581     0.07600
H181        H  0.31071074  0.76105132  0.92485163     0.08800
Cu182      Cu  0.33967868  0.81394991  0.94259946     0.44200
Cu183      Cu  0.32914613  0.77328112  0.95811261     0.42000
Cu184      Cu  0.34724112  0.80283732  0.98483475     0.43900
N185        N  0.35143785  0.82916734  0.95929583    -0.34800
N186        N  0.35397500  0.82506084  0.97471429    -0.29100
C187        C  0.36178562  0.83732183  0.98234364    -0.05200
C188        C  0.36439570  0.84987341  0.97123786     0.07000
C189        C  0.35763896  0.84419815  0.95671330     0.00800
H190        H  0.36547098  0.83692179  0.99503026     0.08500
H191        H  0.35720080  0.85048556  0.94508923     0.07600
N192        N  0.34109740  0.77942416  0.99228169    -0.36300
N193        N  0.33460359  0.76841296  0.98244394    -0.28400
C194        C  0.33227277  0.75446273  0.99085538    -0.03700
C195        C  0.33755305  0.75677563  0.00685487     0.04900
C196        C  0.34306276  0.77282927  0.00720448     0.03000
H197        H  0.32707229  0.74350517  0.98561842     0.08100
H198        H  0.34822771  0.77933943  0.01747224     0.07000
N199        N  0.35696994  0.60313940  0.19110629    -0.27400
N200        N  0.36362048  0.61619636  0.18436010    -0.35300
C201        C  0.37691701  0.62047149  0.19302342     0.00900
C202        C  0.37878481  0.60953480  0.20590146     0.06900
C203        C  0.36582592  0.59872324  0.20422232    -0.06200
H204        H  0.38469628  0.63070152  0.18997730     0.07600
H205        H  0.36297587  0.58832942  0.21186879     0.08800
Cu206      Cu  0.35428959  0.62722466  0.16348050     0.44200
Cu207      Cu  0.33636785  0.59176273  0.18189817     0.42000
Cu208      Cu  0.31879611  0.60799084  0.14450683     0.43900
N209        N  0.34304947  0.63576932  0.14237525    -0.34800
N210        N  0.33021439  0.62885074  0.13543970    -0.29100
C211        C  0.32610776  0.63747999  0.12203694    -0.05200
C212        C  0.33687439  0.65051669  0.12039884     0.07000
C213        C  0.34743379  0.64894657  0.13359004     0.00800
H214        H  0.31600668  0.63438593  0.11411060     0.08500
H215        H  0.35758873  0.65678085  0.13671906     0.07600
N216        N  0.31006177  0.58728701  0.15645438    -0.36300
N217        N  0.31650294  0.58152015  0.17009872    -0.28400
C218        C  0.30830962  0.56806121  0.17468788    -0.03700
C219        C  0.29602737  0.56506379  0.16339616     0.04900
C220        C  0.29755288  0.57759241  0.15199836     0.03000
H221        H  0.31128979  0.56096871  0.18543593     0.08100
H222        H  0.29020227  0.57957723  0.14119667     0.07000
C223        C  0.00332766  0.96570625  0.50172919     0.80100
N224        N  0.99089797  0.96080707  0.49184048    -0.78200
C225        C  0.98205684  0.94719229  0.49541159     0.82500
N226        N  0.98576837  0.93847691  0.50907156    -0.78200
C227        C  0.99814092  0.94318541  0.51910219     0.82600
N228        N  0.00685169  0.95681967  0.51533753    -0.79900
N229        N  0.62507646  0.28307205  0.61831770    -0.27400
N230        N  0.62073479  0.29755953  0.62401724    -0.35300
C231        C  0.62616688  0.29904406  0.63948894     0.00900
C232        C  0.63438236  0.28478395  0.64378848     0.06900
C233        C  0.63338274  0.27497468  0.62996609    -0.06200
H234        H  0.62428035  0.30978244  0.64697208     0.07600
H235        H  0.63821341  0.26276425  0.62840752     0.08800
Cu236      Cu  0.60761350  0.31455281  0.61033189     0.44200
Cu237      Cu  0.61949748  0.27473611  0.59498513     0.42000
Cu238      Cu  0.59711999  0.30200684  0.56868765     0.43900
N239        N  0.59465861  0.32907190  0.59391488    -0.34800
N240        N  0.59092395  0.32453814  0.57885784    -0.29100
C241        C  0.58252426  0.33666352  0.57156795    -0.05200
C242        C  0.58081266  0.34954872  0.58251908     0.07000
C243        C  0.58871449  0.34419745  0.59657705     0.00800
H244        H  0.57795745  0.33598929  0.55918974     0.08500
H245        H  0.59008565  0.35073076  0.60798389     0.07600
N246        N  0.60422762  0.27855958  0.56167323    -0.36300
N247        N  0.61245689  0.26859874  0.57136864    -0.28400
C248        C  0.61512094  0.25439558  0.56349930    -0.03700
C249        C  0.60821966  0.25534125  0.54800889     0.04900
C250        C  0.60142023  0.27093080  0.54735599     0.03000
H251        H  0.62151574  0.24411611  0.56882277     0.08100
H252        H  0.59488349  0.27641145  0.53725642     0.07000
N253        N  0.38035813  0.12115930  0.21721313    -0.27400
N254        N  0.37480172  0.11716940  0.20258057    -0.35300
C255        C  0.35930442  0.12253428  0.20115156     0.00900
C256        C  0.35483935  0.13032690  0.21558928     0.06900
C257        C  0.36859707  0.12916879  0.22545092    -0.06200
H258        H  0.35193415  0.12092791  0.19030428     0.07600
H259        H  0.37005842  0.13372305  0.23776941     0.08800
Cu260      Cu  0.38866472  0.10476900  0.18514843     0.44200
Cu261      Cu  0.40364487  0.11563709  0.22556750     0.42000
Cu262      Cu  0.43023241  0.09476787  0.19742300     0.43900
N263        N  0.40556672  0.09323777  0.16994107    -0.34800
N264        N  0.42070702  0.08980875  0.17443915    -0.29100
C265        C  0.42855907  0.08262427  0.16190510    -0.05200
C266        C  0.41787684  0.08135225  0.14881988     0.07000
C267        C  0.40337731  0.08820235  0.15441288     0.00800
H268        H  0.44108955  0.07843520  0.16242410     0.08500
H269        H  0.39207572  0.08954879  0.14768939     0.07600
N270        N  0.43724841  0.10139442  0.22088220    -0.36300
N271        N  0.42744298  0.10900586  0.23122601    -0.28400
C272        C  0.43552719  0.11173467  0.24527131    -0.03700
C273        C  0.45126280  0.10559715  0.24372093     0.04900
C274        C  0.45187204  0.09912233  0.22804777     0.03000
H275        H  0.43035355  0.11798580  0.25571939     0.08100
H276        H  0.46216234  0.09319224  0.22221734     0.07000
N277        N  0.78425345  0.88168845  0.37434614    -0.27400
N278        N  0.79808823  0.87523491  0.37962292    -0.35300
C279        C  0.79856032  0.85934914  0.37529023     0.00900
C280        C  0.78428627  0.85558574  0.36688011     0.06900
C281        C  0.77556790  0.87014701  0.36655009    -0.06200
H282        H  0.80854644  0.85117541  0.37818644     0.07600
H283        H  0.76374528  0.87232293  0.36106918     0.08800
Cu284      Cu  0.81552554  0.88854352  0.39250540     0.44200
Cu285      Cu  0.77743510  0.90580051  0.37813110     0.42000
Cu286      Cu  0.80512185  0.93147909  0.40047079     0.43900
N287        N  0.83085842  0.90493643  0.40448743    -0.34800
N288        N  0.82711969  0.92042283  0.40731700    -0.29100
C289        C  0.83969282  0.92756592  0.41514087    -0.05200
C290        C  0.85203212  0.91608142  0.41738967     0.07000
C291        C  0.84589679  0.90186074  0.41043527     0.00800
H292        H  0.83978316  0.94026463  0.41880478     0.08500
H293        H  0.85185434  0.89007122  0.40971451     0.07600
N294        N  0.78209664  0.93929553  0.39263687    -0.36300
N295        N  0.77203740  0.92975834  0.38438453    -0.28400
C296        C  0.75814653  0.93797825  0.38124574    -0.03700
C297        C  0.75936805  0.95358156  0.38783660     0.04900
C298        C  0.77482090  0.95390889  0.39496944     0.03000
H299        H  0.74788265  0.93278851  0.37476045     0.08100
H300        H  0.78040853  0.96395363  0.40147864     0.07000
N301        N  0.62997939  0.08169226  0.38172636    -0.27400
N302        N  0.63686659  0.08807355  0.39487375    -0.35300
C303        C  0.65015525  0.07916696  0.39878147     0.00900
C304        C  0.65181472  0.06653191  0.38754170     0.06900
C305        C  0.63874463  0.06859846  0.37690033    -0.06200
H306        H  0.65801984  0.08177433  0.40907512     0.07600
H307        H  0.63564990  0.06103814  0.36650716     0.08800
Cu308      Cu  0.62775261  0.10853671  0.40708677     0.44200
Cu309      Cu  0.60877860  0.09098084  0.37111526     0.42000
Cu310      Cu  0.59039815  0.12617846  0.39119775     0.43900
N311        N  0.61584813  0.12841996  0.41776064    -0.34800
N312        N  0.60217444  0.13478827  0.41197532    -0.29100
C313        C  0.59748042  0.14721654  0.42169132    -0.05200
C314        C  0.60872947  0.14885506  0.43431109     0.07000
C315        C  0.62021822  0.13666162  0.43131760     0.00800
H316        H  0.58660669  0.15445478  0.41963780     0.08500
H317        H  0.63093969  0.13380703  0.43849485     0.07600
N318        N  0.58090738  0.11529563  0.37031947    -0.36300
N319        N  0.58758388  0.10252041  0.36299602    -0.28400
C320        C  0.57849700  0.09855019  0.34988022    -0.03700
C321        C  0.56540543  0.10933861  0.34883288     0.04900
C322        C  0.56740199  0.11977457  0.36207177     0.03000
H323        H  0.58126282  0.08846349  0.34179161     0.08100
H324        H  0.55970171  0.12996698  0.36550221     0.07000
C325        C  0.22384557  0.20213306  0.25787128     0.80100
N326        N  0.21577309  0.19686021  0.27141533    -0.78200
C327        C  0.20251228  0.20506774  0.27717196     0.82500
N328        N  0.19733595  0.21870924  0.26920611    -0.78200
C329        C  0.20521456  0.22417080  0.25562734     0.82600
N330        N  0.21847945  0.21580881  0.25004166    -0.79900
C331        C  0.94799450  0.44431206  0.03260884     0.80100
N332        N  0.96126400  0.44014306  0.04171811    -0.78200
C333        C  0.96572278  0.44922623  0.05490816     0.82500
N334        N  0.95674215  0.46264583  0.05891767    -0.78200
C335        C  0.94344464  0.46700487  0.04994699     0.82600
N336        N  0.93917168  0.45776554  0.03681432    -0.79900
N337        N  0.09269938  0.12087866  0.47473256    -0.27400
N338        N  0.09579310  0.11630321  0.45955629    -0.35300
C339        C  0.08968856  0.10118828  0.45723395     0.00900
C340        C  0.08236545  0.09598160  0.47168324     0.06900
C341        C  0.08459584  0.10888895  0.48245988    -0.06200
H342        H  0.09045040  0.09460862  0.44579372     0.07600
H343        H  0.08051405  0.10973532  0.49499748     0.08800
Cu344      Cu  0.10791019  0.13120645  0.44282671     0.44200
Cu345      Cu  0.09907292  0.14332461  0.48445684     0.42000
Cu346      Cu  0.11915058  0.17187192  0.45816199     0.43900
N347        N  0.11984977  0.14895987  0.42899779    -0.34800
N348        N  0.12385972  0.16358541  0.43459381    -0.29100
C349        C  0.13136711  0.17200934  0.42265051    -0.05200
C350        C  0.13218927  0.16229219  0.40875279     0.07000
C351        C  0.12472900  0.14773200  0.41331971     0.00800
H352        H  0.13593341  0.18431512  0.42413291     0.08500
H353        H  0.12290398  0.13697890  0.40585475     0.07600
N354        N  0.11280974  0.17728447  0.48216915    -0.36300
N355        N  0.10544835  0.16665202  0.49181334    -0.28400
C356        C  0.10289758  0.17353987  0.50650948    -0.03700
C357        C  0.10894485  0.18938312  0.50620690     0.04900
C358        C  0.11514140  0.19128976  0.49049127     0.03000
H359        H  0.09696168  0.16739263  0.51658984     0.08100
H360        H  0.12099999  0.20199661  0.48542664     0.07000
N361        N  0.32589378  0.52526776  0.64748006    -0.27400
N362        N  0.32979608  0.54073815  0.64996680    -0.35300
C363        C  0.34481819  0.54347446  0.64383780     0.00900
C364        C  0.35072234  0.52899871  0.63713182     0.06900
C365        C  0.33828759  0.51775431  0.63973262    -0.06200
H366        H  0.35088010  0.55520668  0.64421349     0.07600
H367        H  0.33805919  0.50503540  0.63614969     0.08800
Cu368      Cu  0.31430996  0.55737008  0.66141080     0.44200
Cu369      Cu  0.30377325  0.51495785  0.65431007     0.42000
Cu370      Cu  0.27431330  0.54179761  0.67317377     0.43900
N371        N  0.29650227  0.57129298  0.67308734    -0.34800
N372        N  0.28198897  0.56563421  0.67733040    -0.29100
C373        C  0.27348244  0.57764571  0.68468527    -0.05200
C374        C  0.28306924  0.59164310  0.68515305     0.07000
C375        C  0.29760427  0.58705954  0.67763921     0.00800
H376        H  0.26121515  0.57616089  0.68935341     0.08500
H377        H  0.30830960  0.59452671  0.67564798     0.07600
N378        N  0.26970371  0.51736944  0.66801990    -0.36300
N379        N  0.28054059  0.50752308  0.66119088    -0.28400
C380        C  0.27386535  0.49261555  0.65936299    -0.03700
C381        C  0.25797184  0.49302277  0.66531483     0.04900
C382        C  0.25582471  0.50899486  0.67070934     0.03000
H383        H  0.28013706  0.48234619  0.65387129     0.08100
H384        H  0.24499303  0.51425726  0.67616925     0.07000
N385        N  0.92104239  0.35493225  0.87835755    -0.27400
N386        N  0.90581477  0.35155805  0.88248347    -0.35300
C387        C  0.90301021  0.35721492  0.89767731     0.00900
C388        C  0.91719679  0.36453286  0.90344987     0.06900
C389        C  0.92834811  0.36280330  0.89077181    -0.06200
H390        H  0.89145161  0.35604078  0.90397332     0.07600
H391        H  0.94085335  0.36702593  0.89041843     0.08800
Cu392      Cu  0.88967314  0.33946690  0.86710051     0.44200
Cu393      Cu  0.93127128  0.34878555  0.85604555     0.42000
Cu394      Cu  0.90569423  0.32712085  0.82733579     0.43900
N395        N  0.87615854  0.32704692  0.84958331    -0.34800
N396        N  0.88192274  0.32260908  0.83514470    -0.29100
C397        C  0.87008501  0.31477938  0.82685407    -0.05200
C398        C  0.85615302  0.31419333  0.83653207     0.07000
C399        C  0.86053526  0.32212557  0.85086713     0.00800
H400        H  0.87165233  0.30972301  0.81473912     0.08500
H401        H  0.85297250  0.32423356  0.86150816     0.07600
N402        N  0.92995982  0.33313229  0.82274069    -0.36300
N403        N  0.93921753  0.34109671  0.83328644    -0.28400
C404        C  0.95416304  0.34318645  0.82682018    -0.03700
C405        C  0.95445890  0.33619454  0.81135771     0.04900
C406        C  0.93881142  0.32992330  0.80924201     0.03000
H407        H  0.96402397  0.34937515  0.83304873     0.08100
H408        H  0.93408662  0.32352523  0.79869310     0.07000
N409        N  0.09023861  0.34233463  0.69108554    -0.27400
N410        N  0.08402665  0.32883619  0.68477474    -0.35300
C411        C  0.07134772  0.32396125  0.69402665     0.00900
C412        C  0.06940514  0.33490524  0.70688171     0.06900
C413        C  0.08168157  0.34639736  0.70453845    -0.06200
H414        H  0.06412248  0.31321008  0.69145942     0.07600
H415        H  0.08426406  0.35701608  0.71196579     0.08800
Cu416      Cu  0.09306071  0.31758214  0.66386952     0.44200
Cu417      Cu  0.11004926  0.35467830  0.68107496     0.42000
Cu418      Cu  0.12862641  0.33646471  0.64525832     0.43900
N419        N  0.10462994  0.30849630  0.64315798    -0.34800
N420        N  0.11758515  0.31537081  0.63640115    -0.29100
C421        C  0.12197913  0.30665889  0.62315712    -0.05200
C422        C  0.11128822  0.29360655  0.62143227     0.07000
C423        C  0.10045857  0.29521003  0.63440422     0.00800
H424        H  0.13222603  0.30969208  0.61538445     0.08500
H425        H  0.09014554  0.28745176  0.63722128     0.07600
N426        N  0.13694453  0.35792890  0.65601294    -0.36300
N427        N  0.13008780  0.36460873  0.66903025    -0.28400
C428        C  0.13826585  0.37831213  0.67295836    -0.03700
C429        C  0.15098022  0.38043830  0.66190089     0.04900
C430        C  0.14969240  0.36719902  0.65132913     0.03000
H431        H  0.13520242  0.38600593  0.68326334     0.08100
H432        H  0.15740932  0.36441501  0.64096197     0.07000
C433        C  0.96840766  0.33571514  0.79966546    -0.03500
C434        C  0.98341526  0.34319472  0.80358572    -0.09300
C435        C  0.99647019  0.34288350  0.79254319    -0.16900
C436        C  0.99478271  0.33509644  0.77741623     0.25200
C437        C  0.97997017  0.32757628  0.77339095    -0.18600
C438        C  0.96688544  0.32786619  0.78441051    -0.07500
C439        C  0.00820012  0.33489327  0.76599043    -0.13900
C440        C  0.01927328  0.33472412  0.75623528    -0.13700
C441        C  0.03218078  0.33449261  0.74423397     0.25100
C442        C  0.03258801  0.32222159  0.73232826    -0.19100
C443        C  0.04476541  0.32223894  0.72032005    -0.07600
C444        C  0.05676140  0.33458285  0.71999520    -0.03600
C445        C  0.05635888  0.34674226  0.73220535    -0.08900
C446        C  0.04415569  0.34668973  0.74420604    -0.16600
H447        H  0.98516275  0.34936987  0.81513543     0.11600
H448        H  0.00787600  0.34875757  0.79580071     0.10800
H449        H  0.97851578  0.32150340  0.76170767     0.10800
H450        H  0.95561983  0.32194208  0.78089343     0.11300
H451        H  0.02339254  0.31269901  0.73223149     0.11400
H452        H  0.04460614  0.31262981  0.71124812     0.11300
H453        H  0.06534840  0.35641176  0.73249119     0.11500
H454        H  0.04398526  0.35625024  0.75337845     0.10300
C455        C  0.24578180  0.47952613  0.66533182    -0.03500
C456        C  0.22925852  0.48264024  0.66905079    -0.09300
C457        C  0.21771168  0.47004539  0.66858369    -0.16900
C458        C  0.22245556  0.45413292  0.66442669     0.25200
C459        C  0.23887425  0.45083546  0.66091518    -0.18600
C460        C  0.25045411  0.46341524  0.66136252    -0.07500
C461        C  0.21042369  0.44127795  0.66358873    -0.13900
C462        C  0.20012923  0.43072792  0.66289685    -0.13700
C463        C  0.18764322  0.41829658  0.66231706     0.25100
C464        C  0.18915782  0.40498915  0.65165688    -0.19100
C465        C  0.17717580  0.39277908  0.65136091    -0.07600
C466        C  0.16347509  0.39367405  0.66177153    -0.03600
C467        C  0.16199201  0.40724814  0.67228088    -0.08900
C468        C  0.17397887  0.41943140  0.67254281    -0.16600
H469        H  0.22512187  0.49482869  0.67209956     0.11600
H470        H  0.20504111  0.47275762  0.67134095     0.10800
H471        H  0.24271949  0.43855512  0.65773798     0.10800
H472        H  0.26303575  0.46045304  0.65857927     0.11300
H473        H  0.19966565  0.40397883  0.64365206     0.11400
H474        H  0.17882570  0.38256754  0.64312334     0.11300
H475        H  0.15160735  0.40852599  0.68035935     0.11500
H476        H  0.17262146  0.42970666  0.68080072     0.10300
C477        C  0.10887051  0.20150301  0.51977604    -0.03500
C478        C  0.11299537  0.21797076  0.51691526    -0.09300
C479        C  0.11308960  0.22928812  0.52975775    -0.16900
C480        C  0.10907921  0.22434348  0.54564398     0.25200
C481        C  0.10486794  0.20803958  0.54861184    -0.18600
C482        C  0.10474873  0.19670665  0.53580132    -0.07500
C483        C  0.10942068  0.23594785  0.55891547    -0.13900
C484        C  0.10982181  0.24569723  0.56999468    -0.13700
C485        C  0.11039490  0.25753513  0.58305089     0.25100
C486        C  0.10150193  0.25498785  0.59745046    -0.19100
C487        C  0.10185362  0.26664638  0.60998365    -0.07600
C488        C  0.11115089  0.28103051  0.60830187    -0.03600
C489        C  0.12016546  0.28337841  0.59382424    -0.08900
C490        C  0.11975906  0.27173022  0.58130532    -0.16600
H491        H  0.11610187  0.22218870  0.50477438     0.11600
H492        H  0.11633631  0.24189174  0.52729724     0.10800
H493        H  0.10175399  0.20405436  0.56085698     0.10800
H494        H  0.10160155  0.18417099  0.53856821     0.11300
H495        H  0.09424382  0.24402053  0.59897091     0.11400
H496        H  0.09489009  0.26432212  0.62098431     0.11300
H497        H  0.12735503  0.29431468  0.59199979     0.11500
H498        H  0.12668065  0.27385341  0.57021074     0.10300
C499        C  0.91982565  0.37279472  0.91943450    -0.03500
C500        C  0.90667235  0.37569141  0.93018038    -0.09300
C501        C  0.90913724  0.38397314  0.94495574    -0.16900
C502        C  0.92475917  0.38944445  0.94922498     0.25200
C503        C  0.93794270  0.38641775  0.93876519    -0.18600
C504        C  0.93552204  0.37815654  0.92400858    -0.07500
C505        C  0.92733172  0.39841830  0.96416008    -0.13900
C506        C  0.93019059  0.40617866  0.97637407    -0.13700
C507        C  0.93439518  0.41556804  0.99067046     0.25100
C508        C  0.94818630  0.41135192  0.99986931    -0.19100
C509        C  0.95258834  0.42065171  0.01352156    -0.07600
C510        C  0.94324671  0.43435714  0.01818059    -0.03600
C511        C  0.92935902  0.43847117  0.00885525    -0.08900
C512        C  0.92498154  0.42913491  0.99520339    -0.16600
H513        H  0.89442229  0.37180473  0.92713909     0.11600
H514        H  0.89883074  0.38623881  0.95296905     0.10800
H515        H  0.95010340  0.39055256  0.94196305     0.10800
H516        H  0.94600084  0.37605999  0.91622655     0.11300
H517        H  0.95559979  0.40090981  0.99643887     0.11400
H518        H  0.96335064  0.41712239  0.02037138     0.11300
H519        H  0.92187822  0.44892534  0.01205956     0.11500
H520        H  0.91430719  0.43254962  0.98814237     0.10300
C521        C  0.19378716  0.19922434  0.29198975    -0.03500
C522        C  0.19745148  0.18386036  0.29887260    -0.09300
C523        C  0.18921576  0.17840143  0.31284895    -0.16900
C524        C  0.17725218  0.18821818  0.32018709     0.25200
C525        C  0.17352967  0.20350923  0.31344581    -0.18600
C526        C  0.18169152  0.20896786  0.29944121    -0.07500
C527        C  0.16898188  0.18277919  0.33478374    -0.13900
C528        C  0.16218045  0.17872944  0.34724769    -0.13700
C529        C  0.15432854  0.17458141  0.36248683     0.25100
C530        C  0.15258315  0.18646845  0.37466021    -0.19100
C531        C  0.14529465  0.18251218  0.38960950    -0.07600
C532        C  0.13961781  0.16654449  0.39267342    -0.03600
C533        C  0.14129164  0.15470290  0.38026028    -0.08900
C534        C  0.14860290  0.15870434  0.36529585    -0.16600
H535        H  0.20664509  0.17601839  0.29344419     0.11600
H536        H  0.19222596  0.16655123  0.31796235     0.10800
H537        H  0.16434149  0.21124939  0.31904758     0.10800
H538        H  0.17859395  0.22087345  0.29453295     0.11300
H539        H  0.15693015  0.19881309  0.37262743     0.11400
H540        H  0.14415682  0.19203416  0.39870848     0.11300
H541        H  0.13713722  0.14229281  0.38209519     0.11500
H542        H  0.14987952  0.14938322  0.35596371     0.10300
C543        C  0.74674872  0.96679722  0.38757157    -0.03500
C544        C  0.74935621  0.98170452  0.39580089    -0.09300
C545        C  0.73747790  0.99406815  0.39555927    -0.16900
C546        C  0.72278075  0.99179890  0.38709816     0.25200
C547        C  0.72002959  0.97702983  0.37890136    -0.18600
C548        C  0.73188087  0.96464507  0.37912244    -0.07500
C549        C  0.71057360  0.00462199  0.38681870    -0.13900
C550        C  0.70044021  0.01542220  0.38670222    -0.13700
C551        C  0.68836650  0.02837467  0.38680176     0.25100
C552        C  0.67885899  0.03148728  0.37290189    -0.19100
C553        C  0.66702503  0.04390237  0.37310038    -0.07600
C554        C  0.66453631  0.05346888  0.38721229    -0.03600
C555        C  0.67425512  0.05031911  0.40107319    -0.08900
C556        C  0.68603136  0.03786592  0.40086393    -0.16600
H557        H  0.76053722  0.98388851  0.40248637     0.11600
H558        H  0.73977619  0.00542153  0.40198218     0.10800
H559        H  0.70871887  0.97508008  0.37230238     0.10800
H560        H  0.72932370  0.95344041  0.37260191     0.11300
H561        H  0.68055783  0.02428800  0.36190902     0.11400
H562        H  0.65992070  0.04604242  0.36215209     0.11300
H563        H  0.67264323  0.05729842  0.41219422     0.11500
H564        H  0.69327490  0.03559738  0.41171887     0.10300
C565        C  0.23841294  0.19309178  0.25181096    -0.03500
C566        C  0.24499518  0.18001172  0.26089257    -0.09300
C567        C  0.25886469  0.17165387  0.25536357    -0.16900
C568        C  0.26635891  0.17616688  0.24066118     0.25200
C569        C  0.25984454  0.18905526  0.23145199    -0.18600
C570        C  0.24598546  0.19747513  0.23697759    -0.07500
C571        C  0.28097347  0.16784611  0.23531026    -0.13900
C572        C  0.29349950  0.16106023  0.23139841    -0.13700
C573        C  0.30880972  0.15325842  0.22738174     0.25100
C574        C  0.32217436  0.15483937  0.23792110    -0.19100
C575        C  0.33709845  0.14740207  0.23410359    -0.07600
C576        C  0.33892672  0.13822209  0.21963697    -0.03600
C577        C  0.32537619  0.13669244  0.20912185    -0.08900
C578        C  0.31044400  0.14415194  0.21298127    -0.16600
H579        H  0.23953409  0.17630122  0.27236629     0.11600
H580        H  0.26381459  0.16173662  0.26263026     0.10800
H581        H  0.26554788  0.19268272  0.22006031     0.10800
H582        H  0.24124298  0.20743190  0.22964458     0.11300
H583        H  0.32107673  0.16186989  0.24909912     0.11400
H584        H  0.34717879  0.14898888  0.24249268     0.11300
H585        H  0.32621012  0.12968661  0.19794076     0.11500
H586        H  0.30018016  0.14281485  0.20472446     0.10300
C587        C  0.46462770  0.10631515  0.25596283    -0.03500
C588        C  0.48104451  0.10455608  0.25112240    -0.09300
C589        C  0.49364287  0.10551966  0.26264498    -0.16900
C590        C  0.49002566  0.10816989  0.27916398     0.25200
C591        C  0.47373377  0.10984364  0.28411393    -0.18600
C592        C  0.46112017  0.10896039  0.27260459    -0.07500
C593        C  0.50301110  0.10905309  0.29103718    -0.13900
C594        C  0.51389798  0.10956370  0.30097972    -0.13700
C595        C  0.52692440  0.10978003  0.31284288     0.25100
C596        C  0.52575940  0.11966019  0.32676602    -0.19100
C597        C  0.53827828  0.11959908  0.33842805    -0.07600
C598        C  0.55217336  0.10961066  0.33634690    -0.03600
C599        C  0.55324245  0.09981086  0.32222292    -0.08900
C600        C  0.54071905  0.09990878  0.31058353    -0.16600
H601        H  0.48420698  0.10266382  0.23841430     0.11600
H602        H  0.50620828  0.10421629  0.25866191     0.10800
H603        H  0.47077397  0.11182625  0.29687564     0.10800
H604        H  0.44863296  0.11020566  0.27678941     0.11300
H605        H  0.51512591  0.12734300  0.32866642     0.11400
H606        H  0.53692087  0.12725086  0.34912566     0.11300
H607        H  0.56375000  0.09207294  0.32006407     0.11500
H608        H  0.54177632  0.09222597  0.29983993     0.10300
C609        C  0.60800214  0.24243757  0.53511045    -0.03500
C610        C  0.59853445  0.24438471  0.52085449    -0.09300
C611        C  0.59836020  0.23226338  0.50875045    -0.16900
C612        C  0.60763513  0.21798772  0.51064038     0.25200
C613        C  0.61705635  0.21588954  0.52477129    -0.18600
C614        C  0.61724448  0.22798513  0.53690286    -0.07500
C615        C  0.60762688  0.20562419  0.49799726    -0.13900
C616        C  0.60768971  0.19549296  0.48721688    -0.13700
C617        C  0.60784529  0.18363814  0.47409702     0.25100
C618        C  0.62102740  0.17284977  0.47232864    -0.19100
C619        C  0.62132030  0.16155327  0.45945180    -0.07600
C620        C  0.60840673  0.16084102  0.44807525    -0.03600
C621        C  0.59517336  0.17172825  0.45002719    -0.08900
C622        C  0.59491455  0.18300815  0.46291605    -0.16600
H623        H  0.59117353  0.25521999  0.51900707     0.11600
H624        H  0.59100170  0.23405425  0.49788411     0.10800
H625        H  0.62432426  0.20492266  0.52639392     0.10800
H626        H  0.62475505  0.22599633  0.54759581     0.11300
H627        H  0.63113629  0.17320868  0.48087276     0.11400
H628        H  0.63174193  0.15347476  0.45843277     0.11300
H629        H  0.58495869  0.17159876  0.44164987     0.11500
H630        H  0.58462939  0.19128265  0.46412439     0.10300
C631        C  0.96824623  0.94209848  0.48476530    -0.03500
C632        C  0.96298699  0.95210677  0.47177269    -0.09300
C633        C  0.94954528  0.94760068  0.46219771    -0.16900
C634        C  0.94119696  0.93300497  0.46538247     0.33600
C635        C  0.94649688  0.92283377  0.47809199    -0.18600
C636        C  0.95990493  0.92732751  0.48771379    -0.07500
C637        C  0.92679822  0.92883300  0.45607592    -0.13900
C638        C  0.91428912  0.92594584  0.44877558    -0.13700
C639        C  0.89881812  0.92339059  0.44067581     0.25100
C640        C  0.88677978  0.93553292  0.44140037    -0.19100
C641        C  0.87163462  0.93315797  0.43384529    -0.07600
C642        C  0.86821785  0.91854934  0.42539670    -0.03600
C643        C  0.88044252  0.90639312  0.42470928    -0.08900
C644        C  0.89561811  0.90881281  0.43228812    -0.16600
H645        H  0.96908063  0.96355557  0.46914596     0.11600
H646        H  0.94553438  0.95561585  0.45243863     0.10800
H647        H  0.94013035  0.91152389  0.48071294     0.10800
H648        H  0.96362787  0.91928492  0.49755311     0.11300
H649        H  0.88907190  0.94685237  0.44788856     0.11400
H650        H  0.86260369  0.94277484  0.43478923     0.11300
H651        H  0.87837905  0.89502977  0.41827697     0.11500
H652        H  0.90482802  0.89930058  0.43163009     0.10300
C653        C  0.07355187  0.08037643  0.47488862    -0.03500
C654        C  0.06682822  0.07715355  0.49042919    -0.09300
C655        C  0.05826375  0.06267652  0.49341136    -0.16900
C656        C  0.05626740  0.05113638  0.48096165     0.25200
C657        C  0.06296850  0.05411571  0.46549754    -0.18600
C658        C  0.07155188  0.06861128  0.46246751    -0.07500
C659        C  0.04729054  0.03630088  0.48409832    -0.13900
C660        C  0.03970630  0.02398018  0.48699070    -0.13700
C661        C  0.03063109  0.00932049  0.49063568     0.25100
C662        C  0.03347915  0.00085664  0.50524001    -0.19100
C663        C  0.02466654  0.98664670  0.50881876    -0.07600
C664        C  0.01281302  0.98070066  0.49785065    -0.03600
C665        C  0.01004920  0.98931556  0.48319057    -0.08900
C666        C  0.01890983  0.00350467  0.47962870    -0.16600
H667        H  0.06807755  0.08577051  0.50036602     0.11600
H668        H  0.05315673  0.06050883  0.50544272     0.10800
H669        H  0.06151561  0.04525754  0.45575492     0.10800
H670        H  0.07650822  0.07056583  0.45037082     0.11300
H671        H  0.04250087  0.00524657  0.51386804     0.11400
H672        H  0.02710606  0.98037798  0.52023032     0.11300
H673        H  0.00105806  0.98510621  0.47445527     0.11500
H674        H  0.01659435  0.00995237  0.46828046     0.10300
C675        C  0.33748244  0.74475221  0.02055052    -0.03500
C676        C  0.33185071  0.72866211  0.01812587    -0.09300
C677        C  0.33192475  0.71735270  0.03096820    -0.16900
C678        C  0.33760824  0.72189524  0.04644638     0.25200
C679        C  0.34318370  0.73785091  0.04903910    -0.18600
C680        C  0.34312356  0.74919264  0.03621994    -0.07500
C681        C  0.33772479  0.71014936  0.05960779    -0.13900
C682        C  0.33768323  0.70005074  0.07038351    -0.13700
C683        C  0.33745310  0.68770991  0.08298705     0.25100
C684        C  0.32486026  0.67615864  0.08344058    -0.19100
C685        C  0.32465277  0.66407914  0.09556306    -0.07600
C686        C  0.33707126  0.66335050  0.10746682    -0.03600
C687        C  0.34968551  0.67506092  0.10687709    -0.08900
C688        C  0.34985806  0.68712456  0.09473870    -0.16600
H689        H  0.32741236  0.72470205  0.00632695     0.11600
H690        H  0.32756597  0.70503501  0.02880596     0.10800
H691        H  0.34760314  0.74153275  0.06097007     0.10800
H692        H  0.34752879  0.76140199  0.03867877     0.11300
H693        H  0.31518558  0.67647594  0.07440348     0.11400
H694        H  0.31470799  0.65539013  0.09556945     0.11300
H695        H  0.35950891  0.67494485  0.11570774     0.11500
H696        H  0.35969856  0.69597511  0.09450650     0.10300
C697        C  0.47973626  0.60630435  0.29866417    -0.03500
C698        C  0.46562438  0.59672746  0.30097071    -0.09300
C699        C  0.45282676  0.59721217  0.28963109    -0.16900
C700        C  0.45390760  0.60726360  0.27582881     0.25200
C701        C  0.46783565  0.61686807  0.27343183    -0.18600
C702        C  0.48064918  0.61640521  0.28473884    -0.07500
C703        C  0.44079350  0.60766522  0.26407284    -0.13900
C704        C  0.42992201  0.60801621  0.25410834    -0.13700
C705        C  0.41703944  0.60844494  0.24210056     0.25100
C706        C  0.41574677  0.62167799  0.23133258    -0.19100
C707        C  0.40330729  0.62207428  0.21960525    -0.07600
C708        C  0.39193996  0.60920618  0.21845874    -0.03600
C709        C  0.39335637  0.59596365  0.22939586    -0.08900
C710        C  0.40581008  0.59560147  0.24110569    -0.16600
H711        H  0.46444623  0.58874664  0.31144278     0.11600
H712        H  0.44210762  0.58970294  0.29161140     0.10800
H713        H  0.46880593  0.62471979  0.26280485     0.10800
H714        H  0.49119050  0.62405016  0.28253868     0.11300
H715        H  0.42436610  0.63170347  0.23199156     0.11400
H716        H  0.40262512  0.63251380  0.21152123     0.11300
H717        H  0.38496362  0.58577736  0.22890175     0.11500
H718        H  0.40670029  0.58527274  0.24935836     0.10300
C719        C  0.98040316  0.44473150  0.06463829    -0.03500
C720        C  0.98507951  0.45412503  0.07829348    -0.09300
C721        C  0.99921284  0.45021855  0.08711327    -0.16900
C722        C  0.00888582  0.43687112  0.08246204     0.25200
C723        C  0.00421976  0.42730501  0.06906162    -0.18600
C724        C  0.99008957  0.43117734  0.06021998    -0.07500
C725        C  0.02379432  0.43323347  0.09116998    -0.13900
C726        C  0.03647743  0.43037629  0.09817769    -0.13700
C727        C  0.05181168  0.42714323  0.10628755     0.25100
C728        C  0.05512087  0.41161859  0.11269302    -0.19100
C729        C  0.07004858  0.40846124  0.12045669    -0.07600
C730        C  0.08194562  0.42081430  0.12195060    -0.03600
C731        C  0.07846048  0.43638977  0.11542198    -0.08900
C732        C  0.06353151  0.43950601  0.10767319    -0.16600
H733        H  0.97791950  0.46460231  0.08209646     0.11600
H734        H  0.00267995  0.45771565  0.09746704     0.10800
H735        H  0.01159517  0.41693760  0.06533924     0.10800
H736        H  0.98687097  0.42364363  0.04982338     0.11300
H737        H  0.04615851  0.40192857  0.11168234     0.11400
H738        H  0.07217510  0.39633859  0.12528240     0.11300
H739        H  0.08720550  0.44625094  0.11624035     0.11500
H740        H  0.06114245  0.45157293  0.10274325     0.10300
C741        C  0.19932528  0.23907137  0.24701788    -0.03500
C742        C  0.20816218  0.24572024  0.23382077    -0.09300
C743        C  0.20254886  0.25976841  0.22577812    -0.16900
C744        C  0.18801468  0.26735369  0.23074967     0.25200
C745        C  0.17914217  0.26083471  0.24383961    -0.18600
C746        C  0.18473960  0.24682717  0.25192412    -0.07500
C747        C  0.18233528  0.28196427  0.22262327    -0.13900
C748        C  0.17786717  0.29445200  0.21610252    -0.13700
C749        C  0.17326042  0.30977843  0.20864498     0.25100
C750        C  0.18254491  0.32378454  0.21170503    -0.19100
C751        C  0.17844832  0.33864706  0.20431878    -0.07600
C752        C  0.16495741  0.33979718  0.19367179    -0.03600
C753        C  0.15555063  0.32565985  0.19082284    -0.08900
C754        C  0.15969142  0.31076561  0.19825216    -0.16600
H755        H  0.21944835  0.24012425  0.22973448     0.11600
H756        H  0.20956874  0.26473144  0.21570289     0.10800
H757        H  0.16790215  0.26660631  0.24783646     0.10800
H758        H  0.17759675  0.24207081  0.26200105     0.11300
H759        H  0.19303637  0.32320989  0.21976780     0.11400
H760        H  0.18593367  0.34918527  0.20701677     0.11300
H761        H  0.14510473  0.32599598  0.18273194     0.11500
H762        H  0.15237732  0.30000790  0.19579971     0.10300
C763        C  0.20218986  0.46531190  0.16381239    -0.03500
C764        C  0.20077060  0.47934301  0.15392555    -0.09300
C765        C  0.21292349  0.49135187  0.15406894    -0.16900
C766        C  0.22666189  0.48956026  0.16408931     0.25200
C767        C  0.22815690  0.47574206  0.17406059    -0.18600
C768        C  0.21602636  0.46370571  0.17393694    -0.07500
C769        C  0.23919718  0.50190775  0.16410246    -0.13900
C770        C  0.24947581  0.51246742  0.16395219    -0.13700
C771        C  0.26138859  0.52541357  0.16366050     0.25100
C772        C  0.27246962  0.52719090  0.17654845    -0.19100
C773        C  0.28374064  0.54003298  0.17645826    -0.07600
C774        C  0.28410956  0.55132916  0.16344078    -0.03600
C775        C  0.27295958  0.54932446  0.15048412    -0.08900
C776        C  0.26170199  0.53646879  0.15061224    -0.16600
H777        H  0.19039599  0.48102784  0.14591277     0.11600
H778        H  0.21163198  0.50201079  0.14630139     0.10800
H779        H  0.23871426  0.47425092  0.18191637     0.10800
H780        H  0.21753247  0.45319980  0.18182610     0.11300
H781        H  0.27233282  0.51871259  0.18673032     0.11400
H782        H  0.29204504  0.54108655  0.18667718     0.11300
H783        H  0.27284859  0.55764892  0.14021607     0.11500
H784        H  0.25317375  0.53520719  0.14056034     0.10300
C785        C  0.37289249  0.86567199  0.97426822    -0.03500
C786        C  0.37767685  0.87579539  0.96118603    -0.09300
C787        C  0.38594780  0.89049722  0.96411721    -0.16900
C788        C  0.38952640  0.89533531  0.98014445     0.25200
C789        C  0.38473137  0.88541822  0.99322711    -0.18600
C790        C  0.37649153  0.87072365  0.99033605    -0.07500
C791        C  0.39827517  0.91034271  0.98322585    -0.13900
C792        C  0.40580170  0.92270941  0.98613658    -0.13700
C793        C  0.41507312  0.93725569  0.98984346     0.25100
C794        C  0.41069907  0.94715027  0.00312355    -0.19100
C795        C  0.41988960  0.96108348  0.00690699    -0.07600
C796        C  0.43361913  0.96535110  0.99743288    -0.03600
C797        C  0.43786017  0.95533887  0.98406134    -0.08900
C798        C  0.42866475  0.94141109  0.98032435    -0.16600
H799        H  0.37523965  0.87231365  0.94866526     0.11600
H800        H  0.38962480  0.89804519  0.95387171     0.10800
H801        H  0.38740226  0.88902271  0.00569088     0.10800
H802        H  0.37291060  0.86340549  0.00074760     0.11300
H803        H  0.40022011  0.94405910  0.01060693     0.11400
H804        H  0.41624266  0.96847847  0.01727080     0.11300
H805        H  0.44834342  0.95819404  0.97650601     0.11500
H806        H  0.43220680  0.93384218  0.97003809     0.10300
C807        C  0.44524730  0.01250613  0.03353746    -0.03500
C808        C  0.43168011  0.00873682  0.04343942    -0.09300
C809        C  0.42801139  0.01824704  0.05720336    -0.16900
C810        C  0.43782455  0.03164925  0.06130365     0.25200
C811        C  0.45135137  0.03548767  0.05156267    -0.18600
C812        C  0.45504250  0.02601381  0.03779200    -0.07500
C813        C  0.43413396  0.04131997  0.07560599    -0.13900
C814        C  0.43114644  0.04913466  0.08778687    -0.13700
C815        C  0.42773677  0.05797513  0.10268209     0.25100
C816        C  0.41159456  0.06011432  0.10797460    -0.19100
C817        C  0.40833519  0.06802427  0.12281492    -0.07600
C818        C  0.42120984  0.07379203  0.13264265    -0.03600
C819        C  0.43737654  0.07183650  0.12707342    -0.08900
C820        C  0.44059920  0.06401287  0.11219777    -0.16600
H821        H  0.42386893  0.99845490  0.04056292     0.11600
H822        H  0.41752613  0.01512478  0.06466473     0.10800
H823        H  0.45907274  0.04579706  0.05462181     0.10800
H824        H  0.46559033  0.02928710  0.03050127     0.11300
H825        H  0.40152925  0.05546847  0.10074032     0.11400
H826        H  0.39576870  0.06923323  0.12676471     0.11300
H827        H  0.44756735  0.07631617  0.13420687     0.11500
H828        H  0.45314221  0.06249064  0.10822265     0.10300
C829        C  0.36657247  0.52618066  0.62860332    -0.03500
C830        C  0.37083975  0.51045415  0.62298086    -0.09300
C831        C  0.38552082  0.50782402  0.61462819    -0.16900
C832        C  0.39622981  0.52082147  0.61174859     0.25200
C833        C  0.39223390  0.53648247  0.61740086    -0.18600
C834        C  0.37753177  0.53915878  0.62577169    -0.07500
C835        C  0.41118474  0.51802630  0.60282726    -0.13900
C836        C  0.42348519  0.51515998  0.59517620    -0.13700
C837        C  0.43797440  0.51118758  0.58593332     0.25100
C838        C  0.44748182  0.49763880  0.59030629    -0.19100
C839        C  0.46136732  0.49353806  0.58119340    -0.07600
C840        C  0.46596478  0.50293511  0.56751080    -0.03600
C841        C  0.45634519  0.51658578  0.56325234    -0.08900
C842        C  0.44245688  0.52066166  0.57240128    -0.16600
H843        H  0.36287830  0.50010056  0.62493648     0.11600
H844        H  0.38848142  0.49563644  0.61034064     0.10800
H845        H  0.40043331  0.54665336  0.61525535     0.10800
H846        H  0.37476352  0.55142484  0.62986505     0.11300
H847        H  0.44412225  0.49018635  0.60073085     0.11400
H848        H  0.46844430  0.48295464  0.58484883     0.11300
H849        H  0.45949226  0.52409977  0.55281796     0.11500
H850        H  0.43517699  0.53116102  0.56887239     0.10300
C851        C  0.51284361  0.46616689  0.55751087    -0.03500
C852        C  0.50875567  0.45679141  0.57136779    -0.09300
C853        C  0.51769159  0.44272456  0.57531844    -0.16900
C854        C  0.53083896  0.43781409  0.56551215     0.25200
C855        C  0.53508990  0.44712039  0.55179636    -0.18600
C856        C  0.52619157  0.46119211  0.54782346    -0.07500
C857        C  0.53976114  0.42306110  0.56929131    -0.13900
C858        C  0.54710561  0.41053070  0.57201342    -0.13700
C859        C  0.55569097  0.39534060  0.57469550     0.25100
C860        C  0.55702786  0.38394053  0.56201345    -0.19100
C861        C  0.56521714  0.36912461  0.56452910    -0.07600
C862        C  0.57223276  0.36542235  0.57982211    -0.03600
C863        C  0.57085893  0.37703451  0.59249336    -0.08900
C864        C  0.56264988  0.39186008  0.58993456    -0.16600
H865        H  0.49858663  0.46024099  0.57911623     0.11600
H866        H  0.51426727  0.43561559  0.58595795     0.10800
H867        H  0.54522255  0.44343595  0.54409265     0.10800
H868        H  0.52970312  0.46807789  0.53707652     0.11300
H869        H  0.55170517  0.38648896  0.55015247     0.11400
H870        H  0.56599257  0.36063394  0.55443036     0.11300
H871        H  0.57603413  0.37472297  0.60443197     0.11500
H872        H  0.56170034  0.40058573  0.59986169     0.10300
C873        C  0.52703463  0.57134818  0.41995503    -0.03500
C874        C  0.53879650  0.57206987  0.43252188    -0.09300
C875        C  0.53615295  0.56405958  0.44744253    -0.16900
C876        C  0.52173660  0.55522068  0.45003344     0.25200
C877        C  0.51001647  0.55439740  0.43763457    -0.18600
C878        C  0.51261438  0.56236767  0.42274792    -0.07500
C879        C  0.51882180  0.54696115  0.46534332    -0.13900
C880        C  0.51567943  0.53975081  0.47784033    -0.13700
C881        C  0.51143513  0.53081232  0.49244133     0.25100
C882        C  0.49679166  0.53418267  0.50065422    -0.19100
C883        C  0.49250267  0.52528104  0.51463313    -0.07600
C884        C  0.50279327  0.51280565  0.52057033    -0.03600
C885        C  0.51750171  0.50953993  0.51221805    -0.08900
C886        C  0.52177754  0.51848849  0.49828225    -0.16600
H887        H  0.55004599  0.57880212  0.43090872     0.11600
H888        H  0.54534116  0.56477725  0.45694909     0.10800
H889        H  0.49881466  0.54758575  0.43947560     0.10800
H890        H  0.50323643  0.56143307  0.41350056     0.11300
H891        H  0.48864582  0.54364782  0.49621183     0.11400
H892        H  0.48107395  0.52809521  0.52069719     0.11300
H893        H  0.52573926  0.50006158  0.51643142     0.11500
H894        H  0.53312203  0.51573389  0.49201741     0.10300
C895        C  0.57906853  0.02530650  0.92401333    -0.03500
C896        C  0.56895227  0.03840098  0.92881676    -0.09300
C897        C  0.55409938  0.03546465  0.93679846    -0.16900
C898        C  0.54909331  0.01942472  0.94003878     0.25200
C899        C  0.55895141  0.00632038  0.93511424    -0.18600
C900        C  0.57381524  0.00922043  0.92717348    -0.07500
C901        C  0.53405644  0.01638787  0.94874029    -0.13900
C902        C  0.52172721  0.01362853  0.95637903    -0.13700
C903        C  0.50732819  0.01005814  0.96591724     0.25100
C904        C  0.49586885  0.99867626  0.96028424    -0.19100
C905        C  0.48223690  0.99473298  0.96984851    -0.07600
C906        C  0.47984148  0.00217354  0.98519434    -0.03600
C907        C  0.49130431  0.01380103  0.99062077    -0.08900
C908        C  0.50495802  0.01765981  0.98107090    -0.16600
H909        H  0.57259969  0.05093106  0.92669641     0.11600
H910        H  0.54659573  0.04571945  0.94058068     0.10800
H911        H  0.55520642  0.99384606  0.93751698     0.10800
H912        H  0.58113793  0.99882180  0.92351025     0.11300
H913        H  0.49755274  0.99272134  0.94856831     0.11400
H914        H  0.47361890  0.98581545  0.96524285     0.11300
H915        H  0.48987795  0.01974994  0.00236506     0.11500
H916        H  0.51374840  0.02646838  0.98558330     0.10300
C917        C  0.70102919  0.98021039  0.88796206    -0.03500
C918        C  0.69792811  0.96503691  0.89550288    -0.09300
C919        C  0.70933050  0.95230666  0.89452948    -0.16900
C920        C  0.72399544  0.95451313  0.88601650     0.25200
C921        C  0.72719206  0.96949593  0.87842358    -0.18600
C922        C  0.71581918  0.98224757  0.87937648    -0.07500
C923        C  0.73591769  0.94154594  0.88539594    -0.13900
C924        C  0.74605673  0.93081847  0.88532190    -0.13700
C925        C  0.75828235  0.91813403  0.88583229     0.25100
C926        C  0.77150495  0.91843872  0.87498478    -0.19100
C927        C  0.78356738  0.90631829  0.87577501    -0.07600
C928        C  0.78259038  0.89371034  0.88747310    -0.03600
C929        C  0.76918878  0.89350411  0.89827208    -0.08900
C930        C  0.75714012  0.90562177  0.89743857    -0.16600
H931        H  0.68677599  0.96295295  0.90227727     0.11600
H932        H  0.70674444  0.94077123  0.90050737     0.10800
H933        H  0.73851689  0.97135525  0.87181288     0.10800
H934        H  0.71867414  0.99364368  0.87332600     0.11300
H935        H  0.77255201  0.92810178  0.86598118     0.11400
H936        H  0.79371678  0.90698767  0.86732951     0.11300
H937        H  0.76790064  0.88396165  0.90733283     0.11500
H938        H  0.74695480  0.90526113  0.90590117     0.10300
C939        C  0.02461231  0.87232156  0.63344635    -0.03500
C940        C  0.01020682  0.88150266  0.63119186    -0.09300
C941        C  0.00734143  0.88979421  0.61652560    -0.16900
C942        C  0.01878048  0.88905734  0.60384123     0.25200
C943        C  0.03305532  0.87981274  0.60583058    -0.18600
C944        C  0.03596728  0.87150002  0.62052030    -0.07500
C945        C  0.01589942  0.89801958  0.58893793    -0.13900
C946        C  0.01310457  0.90581229  0.57671710    -0.13700
C947        C  0.00938833  0.91521838  0.56227777     0.25100
C948        C  0.01925507  0.92845949  0.55781330    -0.19100
C949        C  0.01559786  0.93760151  0.54381122    -0.07600
C950        C  0.00200742  0.93359442  0.53403932    -0.03600
C951        C  0.99213498  0.92028890  0.53869461    -0.08900
C952        C  0.99580065  0.91119990  0.55271201    -0.16600
H953        H  0.00118954  0.88255132  0.64080231     0.11600
H954        H  0.99624815  0.89691019  0.61513801     0.10800
H955        H  0.04198847  0.87911076  0.59607071     0.10800
H956        H  0.04711102  0.86447391  0.62170215     0.11300
H957        H  0.02978309  0.93171681  0.56514852     0.11400
H958        H  0.02346045  0.94775352  0.54062263     0.11300
H959        H  0.98154608  0.91688575  0.53153207     0.11500
H960        H  0.98803360  0.90102044  0.55607979     0.10300
C961        C  0.97977859  0.83676732  0.75507175    -0.03500
C962        C  0.98186498  0.82912951  0.77037393    -0.09300
C963        C  0.96892551  0.82828405  0.78154798    -0.16900
C964        C  0.95369747  0.83504228  0.77764121     0.25200
C965        C  0.95146124  0.84262870  0.76247497    -0.18600
C966        C  0.96436822  0.84349145  0.75127978    -0.07500
C967        C  0.94042251  0.83434412  0.78923449    -0.13900
C968        C  0.92933549  0.83397451  0.79897937    -0.13700
C969        C  0.91616258  0.83382135  0.81070534     0.25100
C970        C  0.90593119  0.84745448  0.81229545    -0.19100
C971        C  0.89332704  0.84747450  0.82385602    -0.07600
C972        C  0.89077922  0.83384599  0.83407113    -0.03600
C973        C  0.90106501  0.82014107  0.83228118    -0.08900
C974        C  0.91365004  0.82014252  0.82068004    -0.16600
H975        H  0.99344758  0.82374443  0.77377959     0.11600
H976        H  0.97081617  0.82237502  0.79325411     0.10800
H977        H  0.93974017  0.84793526  0.75930842     0.10800
H978        H  0.96220489  0.84952134  0.73971987     0.11300
H979        H  0.90776350  0.85813164  0.80466913     0.11400
H980        H  0.88578648  0.85829610  0.82491605     0.11300
H981        H  0.89941187  0.80938008  0.83979095     0.11500
H982        H  0.92146614  0.80949553  0.81954358     0.10300
C983        C  0.93377000  0.48174910  0.05434851    -0.03500
C984        C  0.91982513  0.48612827  0.04524557    -0.09300
C985        C  0.91079364  0.50008711  0.04930484    -0.16900
C986        C  0.91553350  0.50988633  0.06249971     0.25200
C987        C  0.92934366  0.50563299  0.07166361    -0.18600
C988        C  0.93840008  0.49166901  0.06763928    -0.07500
C989        C  0.90637975  0.52444222  0.06642506    -0.13900
C990        C  0.89881141  0.53679473  0.06929853    -0.13700
C991        C  0.88997430  0.55177951  0.07220878     0.25100
C992        C  0.88835204  0.56329514  0.05966959    -0.19100
C993        C  0.87998773  0.57796128  0.06244632    -0.07600
C994        C  0.87308765  0.58138087  0.07786230    -0.03600
C995        C  0.87471701  0.56963299  0.09037025    -0.08900
C996        C  0.88309882  0.55496256  0.08755067    -0.16600
H997        H  0.91588381  0.47880593  0.03494879     0.11600
H998        H  0.90014508  0.50327333  0.04209993     0.10800
H999        H  0.93315627  0.51314619  0.08188261     0.10800
H1000       H  0.94905565  0.48870091  0.07490884     0.11300
H1001       H  0.89361449  0.56096690  0.04773209     0.11400
H1002       H  0.87904014  0.58658153  0.05247308     0.11300
H1003       H  0.86959866  0.57171022  0.10238057     0.11500
H1004       H  0.88426238  0.54613222  0.09736030     0.10300
C1005       C  0.83421210  0.70324078  0.03421393    -0.03500
C1006       C  0.83075866  0.71971337  0.03792924    -0.09300
C1007       C  0.83086222  0.73163461  0.02564630    -0.16900
C1008       C  0.83436863  0.72729461  0.00946713     0.25200
C1009       C  0.83764089  0.71094636  0.00560721    -0.18600
C1010       C  0.83756070  0.69900843  0.01785899    -0.07500
C1011       C  0.83468357  0.73957987  0.99682132    -0.13900
C1012       C  0.83499558  0.74970554  0.98608143    -0.13700
C1013       C  0.83532253  0.76167772  0.97313877     0.25100
C1014       C  0.84355345  0.75830895  0.95851326    -0.19100
C1015       C  0.84384327  0.76990457  0.94592902    -0.07600
C1016       C  0.83586109  0.78506196  0.94778024    -0.03600
C1017       C  0.82757877  0.78829520  0.96252824    -0.08900
C1018       C  0.82734276  0.77669611  0.97510534    -0.16600
H1019       H  0.82820216  0.72350685  0.05033701     0.11600
H1020       H  0.82830027  0.74425273  0.02879243     0.10800
H1021       H  0.84031337  0.70742198  0.99311660     0.10800
H1022       H  0.84011619  0.68648579  0.01444834     0.11300
H1023       H  0.84973431  0.74670379  0.95682013     0.11400
H1024       H  0.85020654  0.76689461  0.93472940     0.11300
H1025       H  0.82141236  0.79984046  0.96447696     0.11500
H1026       H  0.82094320  0.77945688  0.98637481     0.10300
C1027       C  0.66589022  0.10757600  0.86021382    -0.03500
C1028       C  0.68028749  0.10963110  0.85099327    -0.09300
C1029       C  0.68401658  0.12475393  0.84393319    -0.16900
C1030       C  0.67345275  0.13807008  0.84596203     0.25200
C1031       C  0.65913795  0.13620155  0.85512749    -0.18600
C1032       C  0.65536966  0.12108481  0.86220053    -0.07500
C1033       C  0.67733415  0.15361067  0.83861288    -0.13900
C1034       C  0.68097741  0.16644604  0.83230941    -0.13700
C1035       C  0.68597159  0.18148185  0.82459439     0.25100
C1036       C  0.67788331  0.18714256  0.81061140    -0.19100
C1037       C  0.68328662  0.20130040  0.80266120    -0.07600
C1038       C  0.69691625  0.20998240  0.80857489    -0.03600
C1039       C  0.70475365  0.20433998  0.82283590    -0.08900
C1040       C  0.69931796  0.19019931  0.83075800    -0.16600
H1041       H  0.68866522  0.09957571  0.84907443     0.11600
H1042       H  0.69513544  0.12604467  0.83685272     0.10800
H1043       H  0.65087739  0.14643197  0.85681420     0.10800
H1044       H  0.64425209  0.12007972  0.86927415     0.11300
H1045       H  0.66753515  0.18049459  0.80572251     0.11400
H1046       H  0.67692873  0.20528647  0.79175466     0.11300
H1047       H  0.71523023  0.21071663  0.82778784     0.11500
H1048       H  0.70567465  0.18594221  0.84157448     0.10300
C1049       C  0.73822556  0.25349214  0.80249047    -0.03500
C1050       C  0.74764030  0.24673130  0.81523575    -0.09300
C1051       C  0.76212087  0.25429924  0.82029820    -0.16900
C1052       C  0.76735740  0.26874548  0.81275861     0.25200
C1053       C  0.75802287  0.27561629  0.80017625    -0.18600
C1054       C  0.74358620  0.26806011  0.79505930    -0.07500
C1055       C  0.78239542  0.27645723  0.81771006    -0.13900
C1056       C  0.79504653  0.28310828  0.82133707    -0.13700
C1057       C  0.81026022  0.29111201  0.82516178     0.25100
C1058       C  0.82155277  0.29438628  0.81273425    -0.19100
C1059       C  0.83642286  0.30196813  0.81639943    -0.07600
C1060       C  0.84022088  0.30642847  0.83258118    -0.03600
C1061       C  0.82869892  0.30322010  0.84497025    -0.08900
C1062       C  0.81384802  0.29559793  0.84127469    -0.16600
H1063       H  0.74392046  0.23551518  0.82120154     0.11600
H1064       H  0.76926149  0.24884408  0.83003371     0.10800
H1065       H  0.76194988  0.28679163  0.79424862     0.10800
H1066       H  0.73664849  0.27364007  0.78525992     0.11300
H1067       H  0.81888425  0.29103652  0.80020008     0.11400
H1068       H  0.84487015  0.30438263  0.80651551     0.11300
H1069       H  0.83119999  0.30635787  0.85756800     0.11500
H1070       H  0.80520387  0.29313119  0.85100433     0.10300
C1071       C  0.69342629  0.24885345  0.76239137    -0.03500
C1072       C  0.67908550  0.24125366  0.75668372    -0.09300
C1073       C  0.67163382  0.24648473  0.74218813    -0.16900
C1074       C  0.67837120  0.25937212  0.73316420     0.25200
C1075       C  0.69256845  0.26707475  0.73877399    -0.18600
C1076       C  0.70003892  0.26188234  0.75327008    -0.07500
C1077       C  0.67085774  0.26450611  0.71804002    -0.13900
C1078       C  0.66462196  0.26848589  0.70525139    -0.13700
C1079       C  0.65721057  0.27277277  0.68981519     0.25100
C1080       C  0.64760137  0.28688275  0.68840531    -0.19100
C1081       C  0.64024748  0.29086679  0.67345495    -0.07600
C1082       C  0.64237439  0.28076099  0.65965956    -0.03600
C1083       C  0.65215799  0.26665283  0.66122562    -0.08900
C1084       C  0.65949393  0.26271222  0.67616684    -0.16600
H1085       H  0.67363836  0.23120965  0.76336157     0.11600
H1086       H  0.66065617  0.24040998  0.73797355     0.10800
H1087       H  0.69792195  0.27704755  0.73189855     0.10800
H1088       H  0.71105652  0.26802233  0.75725302     0.11300
H1089       H  0.64572243  0.29477368  0.69888328     0.11400
H1090       H  0.63278309  0.30177089  0.67281481     0.11300
H1091       H  0.65424647  0.25861652  0.65093628     0.11500
H1092       H  0.66692660  0.25177233  0.67707577     0.10300
C1093       C  0.75321081  0.69855780  0.26190925    -0.03500
C1094       C  0.76690624  0.70717091  0.25604228    -0.09300
C1095       C  0.77527459  0.70178336  0.24210218    -0.16900
C1096       C  0.77012853  0.68770887  0.23382816     0.25200
C1097       C  0.75659163  0.67901016  0.23960819    -0.18600
C1098       C  0.74819671  0.68436952  0.25352806    -0.07500
C1099       C  0.77851089  0.68240312  0.21922486    -0.13900
C1100       C  0.78531663  0.67838869  0.20673850    -0.13700
C1101       C  0.79318614  0.67437842  0.19145560     0.25100
C1102       C  0.79894436  0.65852544  0.18844609    -0.19100
C1103       C  0.80638872  0.65473528  0.17347619    -0.07600
C1104       C  0.80815943  0.66676723  0.16126447    -0.03600
C1105       C  0.80240725  0.68268612  0.16452221    -0.08900
C1106       C  0.79498689  0.68642656  0.17946180    -0.16600
H1107       H  0.77111369  0.71813679  0.26214207     0.11600
H1108       H  0.78570794  0.70865555  0.23772480     0.10800
H1109       H  0.75245686  0.66812403  0.23329962     0.10800
H1110       H  0.73773042  0.67741472  0.25766147     0.11300
H1111       H  0.79761990  0.64907357  0.19763352     0.11400
H1112       H  0.81059169  0.64235205  0.17148478     0.11300
H1113       H  0.80358666  0.69234840  0.15558517     0.11500
H1114       H  0.79060710  0.69874804  0.18163913     0.10300
C1115       C  0.77928567  0.83956801  0.35983935    -0.03500
C1116       C  0.76322095  0.83717381  0.35413072    -0.09300
C1117       C  0.75854133  0.82222547  0.34727885    -0.16900
C1118       C  0.76980324  0.80940192  0.34600597     0.25200
C1119       C  0.78576787  0.81157482  0.35175290    -0.18600
C1120       C  0.79048538  0.82652644  0.35863493    -0.07500
C1121       C  0.76502473  0.79416136  0.33852037    -0.13900
C1122       C  0.76091905  0.78161712  0.33189997    -0.13700
C1123       C  0.75595995  0.76685548  0.32361156     0.25100
C1124       C  0.76530833  0.76070990  0.31064881    -0.19100
C1125       C  0.76036325  0.74657877  0.30236239    -0.07600
C1126       C  0.74595678  0.73835135  0.30692876    -0.03600
C1127       C  0.73669452  0.74458985  0.32005947    -0.08900
C1128       C  0.74166044  0.75873600  0.32830833    -0.16600
H1129       H  0.75417320  0.84678931  0.35496042     0.11600
H1130       H  0.74614129  0.82070131  0.34290040     0.10800
H1131       H  0.79461576  0.80174727  0.35081020     0.10800
H1132       H  0.80295048  0.82787583  0.36280368     0.11300
H1133       H  0.77639477  0.76688826  0.30688701     0.11400
H1134       H  0.76781695  0.74214232  0.29235538     0.11300
H1135       H  0.72554392  0.73861300  0.32392544     0.11500
H1136       H  0.73430006  0.76337783  0.33830423     0.10300
C1137       C  0.70689095  0.69286717  0.30015738    -0.03500
C1138       C  0.69700772  0.69921391  0.31275660    -0.09300
C1139       C  0.68281654  0.69103028  0.31764269    -0.16900
C1140       C  0.67829048  0.67636928  0.31007282     0.25200
C1141       C  0.68806810  0.66989623  0.29759531    -0.18600
C1142       C  0.70225413  0.67807444  0.29265468    -0.07500
C1143       C  0.66348156  0.66815216  0.31495310    -0.13900
C1144       C  0.65086068  0.66166033  0.31898955    -0.13700
C1145       C  0.63550986  0.65435934  0.32364908     0.25100
C1146       C  0.62204982  0.65538740  0.31316157    -0.19100
C1147       C  0.60706145  0.64855067  0.31770253    -0.07600
C1148       C  0.60526545  0.64053809  0.33285085    -0.03600
C1149       C  0.61890581  0.63957835  0.34331573    -0.08900
C1150       C  0.63389934  0.64643482  0.33873277    -0.16600
H1151       H  0.70015537  0.71056969  0.31878547     0.11600
H1152       H  0.67533103  0.69618521  0.32728795     0.10800
H1153       H  0.68469110  0.65856421  0.29162757     0.10800
H1154       H  0.70956360  0.67280322  0.28294925     0.11300
H1155       H  0.62311676  0.66153629  0.30147538     0.11400
H1156       H  0.59690913  0.64967953  0.30932141     0.11300
H1157       H  0.61809590  0.63347414  0.35501322     0.11500
H1158       H  0.64422973  0.64556999  0.34697392     0.10300
C1159       C  0.10756775  0.80963287  0.72117543    -0.03500
C1160       C  0.10892027  0.79968791  0.73516695    -0.09300
C1161       C  0.12370596  0.79204867  0.73904825    -0.16900
C1162       C  0.13740234  0.79423151  0.72906028     0.25200
C1163       C  0.13625945  0.80415887  0.71515870    -0.18600
C1164       C  0.12144380  0.81180133  0.71121793    -0.07500
C1165       C  0.15255929  0.78622477  0.73314167    -0.13900
C1166       C  0.16503916  0.77935269  0.73698506    -0.13700
C1167       C  0.17978945  0.77109930  0.74195725     0.25100
C1168       C  0.18662495  0.75891286  0.73206277    -0.19100
C1169       C  0.20087959  0.75082134  0.73696813    -0.07600
C1170       C  0.20851251  0.75482742  0.75186843    -0.03600
C1171       C  0.20154098  0.76713168  0.76170714    -0.08900
C1172       C  0.18727620  0.77517535  0.75678432    -0.16600
H1173       H  0.09852659  0.79756913  0.74305331     0.11600
H1174       H  0.12443099  0.78437534  0.74982505     0.10800
H1175       H  0.14680442  0.80597423  0.70735237     0.10800
H1176       H  0.12092018  0.81944805  0.70043796     0.11300
H1177       H  0.18092042  0.75563873  0.72056851     0.11400
H1178       H  0.20589234  0.74142808  0.72908726     0.11300
H1179       H  0.20703635  0.77050564  0.77326473     0.11500
H1180       H  0.18207030  0.78456027  0.76456465     0.10300
C1181       C  0.30528837  0.77908708  0.89393256    -0.03500
C1182       C  0.29468680  0.76556380  0.89305642    -0.09300
C1183       C  0.28705667  0.76140903  0.87834199    -0.16900
C1184       C  0.28988112  0.77066454  0.86424487     0.25200
C1185       C  0.30026556  0.78424543  0.86498501    -0.18600
C1186       C  0.30789690  0.78845987  0.87972571    -0.07500
C1187       C  0.28223992  0.76605634  0.84903906    -0.13900
C1188       C  0.27579276  0.76188403  0.83643408    -0.13700
C1189       C  0.26800452  0.75688105  0.82142999     0.25100
C1190       C  0.25363438  0.76460076  0.81628392    -0.19100
C1191       C  0.24613327  0.75992560  0.80165712    -0.07600
C1192       C  0.25288177  0.74739989  0.79192130    -0.03600
C1193       C  0.26728851  0.73962488  0.79726209    -0.08900
C1194       C  0.27478547  0.74435080  0.81190970    -0.16600
H1195       H  0.29218144  0.75817658  0.90373368     0.11600
H1196       H  0.27899680  0.75091411  0.87795126     0.10800
H1197       H  0.30255343  0.79151303  0.85414803     0.10800
H1198       H  0.31601276  0.79889154  0.87989373     0.11300
H1199       H  0.24823770  0.77427920  0.82355936     0.11400
H1200       H  0.23502904  0.76614627  0.79800531     0.11300
H1201       H  0.27280687  0.72992850  0.79012072     0.11500
H1202       H  0.28589390  0.73825748  0.81578574     0.10300
C1203       C  0.24878246  0.71064889  0.74399159    -0.03500
C1204       C  0.23909818  0.70400197  0.73140314    -0.09300
C1205       C  0.24402436  0.68983677  0.72317820    -0.16900
C1206       C  0.25873628  0.68214563  0.72730706     0.25200
C1207       C  0.26866206  0.68886789  0.73951842    -0.18600
C1208       C  0.26372667  0.70301096  0.74782652    -0.07500
C1209       C  0.26332351  0.66704949  0.71942965    -0.13900
C1210       C  0.26683044  0.65414283  0.71317112    -0.13700
C1211       C  0.27083505  0.63853186  0.70601084     0.25100
C1212       C  0.28569318  0.63635306  0.69783275    -0.19100
C1213       C  0.28966126  0.62115762  0.69102658    -0.07600
C1214       C  0.27880627  0.60785380  0.69229953    -0.03600
C1215       C  0.26386357  0.61022034  0.70054520    -0.08900
C1216       C  0.25993154  0.62543256  0.70733706    -0.16600
H1217       H  0.22752120  0.70952554  0.72811967     0.11600
H1218       H  0.23622917  0.68474753  0.71376187     0.10800
H1219       H  0.28009530  0.68303273  0.74279994     0.10800
H1220       H  0.27152168  0.70784004  0.75736602     0.11300
H1221       H  0.29424261  0.64640123  0.69673259     0.11400
H1222       H  0.30123739  0.61993085  0.68477544     0.11300
H1223       H  0.25517677  0.60036010  0.70186900     0.11500
H1224       H  0.24839498  0.62695856  0.71366750     0.10300
loop_ 
_geom_bond_atom_site_label_1 
_geom_bond_atom_site_label_2 
_geom_bond_distance 
_geom_bond_site_symmetry_2 
_ccdc_geom_bond_type 
C1            N2   1.358       .  A
C1            N6   1.358       .  A
C1         C1170   1.484       .  S
N2            C3   1.359       .  A
C3            N4   1.361       .  A
C3         C1192   1.486       .  S
N4            C5   1.362       .  A
C5            N6   1.359       .  A
C5         C1203   1.485       .  S
C7            N8   1.361       .  A
C7           N12   1.360       .  A
C7         C1126   1.487       .  S
N8            C9   1.361       .  A
C9           N10   1.360       .  A
C9         C1093   1.487       .  S
N10          C11   1.359       .  A
C11          N12   1.359       .  A
C11        C1137   1.486       .  S
C13          N14   1.359       .  A
C13          N18   1.360       .  A
C13        C1071   1.487       .  S
N14          C15   1.359       .  A
C15          N16   1.359       .  A
C15        C1049   1.485       .  S
N16          C17   1.360       .  A
C17          N18   1.361       .  A
C17        C1038   1.486       .  S
N19          C23   1.343       .  A
N19          N20   1.321       .  A
N19         Cu27   2.074       .  S
N20          C21   1.347       .  A
N20         Cu26   2.080       .  S
C21          C22   1.390       .  A
C21          H24   1.081       .  S
C22        C1104   1.490       .  S
C22          C23   1.389       .  A
C23          H25   1.081       .  S
Cu26         N29   2.080       .  S
Cu27         N37   2.074       .  S
Cu28         N30   2.077       .  S
Cu28         N36   2.077       .  S
N29          C33   1.345       .  A
N29          N30   1.322       .  A
N30          C31   1.344       .  A
C31          C32   1.389       .  A
C31          H34   1.081       .  S
C32         C994   1.490       .  S
C32          C33   1.390       .  A
C33          H35   1.081       .  S
N36          C40   1.345       .  A
N36          N37   1.321       .  A
N37          C38   1.345       .  A
C38          C39   1.389       .  A
C38          H41   1.081       .  S
C39        C1005   1.488       .  S
C39          C40   1.389       .  A
C40          H42   1.081       .  S
N43          C47   1.343       .  A
N43          N44   1.321       .  A
N43         Cu51   2.072       .  S
N44          C45   1.347       .  A
N44         Cu50   2.081       .  S
C45          C46   1.390       .  A
C45          H48   1.081       .  S
C46         C939   1.488       .  S
C46          C47   1.387       .  A
C47          H49   1.081       .  S
Cu50         N53   2.082       .  S
Cu51         N61   2.072       .  S
Cu52         N54   2.078       .  S
Cu52         N60   2.078       .  S
N53          C57   1.347       .  A
N53          N54   1.322       .  A
N54          C55   1.344       .  A
C55          C56   1.387       .  A
C55          H58   1.081       .  S
C56        C1159   1.487       .  S
C56          C57   1.389       .  A
C57          H59   1.081       .  S
N60          C64   1.346       .  A
N60          N61   1.320       .  A
N61          C62   1.344   1_455  A
C62          C63   1.389       .  A
C62          H65   1.081       .  S
C63         C961   1.490       .  S
C63          C64   1.391   1_655  A
C64          H66   1.081       .  S
N67          C71   1.344       .  A
N67          N68   1.321       .  A
N67         Cu75   2.075       .  S
N68          C69   1.346       .  A
N68         Cu74   2.080       .  S
C69          C70   1.389       .  A
C69          H72   1.081       .  S
C70         C895   1.487       .  S
C70          C71   1.387       .  A
C71          H73   1.081       .  S
Cu74         N77   2.080       .  S
Cu75         N85   2.075       .  S
Cu76         N78   2.074       .  S
Cu76         N84   2.074       .  S
N77          C81   1.345       .  A
N77          N78   1.321       .  A
N78          C79   1.344       .  A
C79          C80   1.388       .  A
C79          H82   1.081       .  S
C80        C1027   1.488       .  S
C80          C81   1.389       .  A
C81          H83   1.081       .  S
N84          C88   1.344       .  A
N84          N85   1.320       .  A
N85          C86   1.345   1_545  A
C86          C87   1.389       .  A
C86          H89   1.081       .  S
C87         C917   1.488       .  S
C87          C88   1.389   1_565  A
C88          H90   1.081       .  S
N91          C95   1.346       .  A
N91          N92   1.321       .  A
N91         Cu99   2.078       .  S
N92          C93   1.344       .  A
N92         Cu98   2.071       .  S
C93          C94   1.387       .  A
C93          H96   1.081       .  S
C94         C972   1.487       .  S
C94          C95   1.389       .  A
C95          H97   1.081       .  S
Cu98        N101   2.071       .  S
Cu99        N109   2.079       .  S
Cu100       N102   2.078       .  S
Cu100       N108   2.078       .  S
N101        C105   1.344       .  A
N101        N102   1.321       .  A
N102        C103   1.345       .  A
C103        C104   1.389       .  A
C103        H106   1.081       .  S
C104        C928   1.486       .  S
C104        C105   1.387       .  A
C105        H107   1.081       .  S
N108        C112   1.345       .  A
N108        N109   1.322       .  A
N109        C110   1.345       .  A
C110        C111   1.388       .  A
C110        H113   1.081       .  S
C111       C1016   1.487       .  S
C111        C112   1.388       .  A
C112        H114   1.081       .  S
C115        N116   1.359       .  A
C115        N120   1.359       .  A
C115        C851   1.486       .  S
N116        C117   1.360       .  A
C117        N118   1.361       .  A
C117        C840   1.487       .  S
N118        C119   1.360       .  A
C119        N120   1.359       .  A
C119        C884   1.486       .  S
C121        N122   1.360       .  A
C121        N126   1.359   1_566  A
C121        C906   1.486   1_565  S
N122        C123   1.360   1_556  A
C123        N124   1.361       .  A
C123        C796   1.488   1_554  S
N124        C125   1.361   1_565  A
C125        N126   1.359       .  A
C125        C807   1.487       .  S
N127        C131   1.344       .  A
N127        N128   1.322       .  A
N127       Cu135   2.075       .  S
N128        C129   1.347       .  A
N128       Cu134   2.088       .  S
C129        C130   1.391       .  A
C129        H132   1.081       .  S
C130        C730   1.491       .  S
C130        C131   1.388       .  A
C131        H133   1.081       .  S
Cu134       N137   2.088       .  S
Cu135       N145   2.074       .  S
Cu136       N138   2.071       .  S
Cu136       N144   2.070       .  S
N137        C141   1.348       .  A
N137        N138   1.321       .  A
N138        C139   1.343       .  A
C139        C140   1.387       .  A
C139        H142   1.081       .  S
C140        C752   1.490       .  S
C140        C141   1.392       .  A
C141        H143   1.081       .  S
N144        C148   1.344       .  A
N144        N145   1.320       .  A
N145        C146   1.345       .  A
C146        C147   1.389       .  A
C146        H149   1.081       .  S
C147        C763   1.487       .  S
C147        C148   1.388       .  A
C148        H150   1.081       .  S
N151        C155   1.344       .  A
N151        N152   1.321       .  A
N151       Cu159   2.072       .  S
N152        C153   1.347       .  A
N152       Cu158   2.085       .  S
C153        C154   1.391       .  A
C153        H156   1.081       .  S
C154       C1148   1.489       .  S
C154        C155   1.388       .  A
C155        H157   1.081       .  S
Cu158       N161   2.085       .  S
Cu159       N169   2.072       .  S
Cu160       N162   2.075       .  S
Cu160       N168   2.074       .  S
N161        C165   1.347       .  A
N161        N162   1.322       .  A
N162        C163   1.343       .  A
C163        C164   1.388       .  A
C163        H166   1.080       .  S
C164        C873   1.491       .  S
C164        C165   1.391       .  A
C165        H167   1.081       .  S
N168        C172   1.345       .  A
N168        N169   1.320       .  A
N169        C170   1.344       .  A
C170        C171   1.389       .  A
C170        H173   1.081       .  S
C171        C697   1.488       .  S
C171        C172   1.390       .  A
C172        H174   1.081       .  S
N175        C179   1.344       .  A
N175        N176   1.323       .  A
N175       Cu183   2.078       .  S
N176        C177   1.347       .  A
N176       Cu182   2.084       .  S
C177        C178   1.389       .  A
C177        H180   1.082       .  S
C178       C1181   1.487       .  S
C178        C179   1.387       .  A
C179        H181   1.081       .  S
Cu182       N185   2.084       .  S
Cu183       N193   2.078       .  S
Cu184       N186   2.072       .  S
Cu184       N192   2.072       .  S
N185        C189   1.347       .  A
N185        N186   1.321       .  A
N186        C187   1.343       .  A
C187        C188   1.387       .  A
C187        H190   1.081       .  S
C188        C785   1.489       .  S
C188        C189   1.390       .  A
C189        H191   1.081       .  S
N192        C196   1.344   1_556  A
N192        N193   1.320       .  A
N193        C194   1.346       .  A
C194        C195   1.391   1_556  A
C194        H197   1.081       .  S
C195        C675   1.490       .  S
C195        C196   1.389       .  A
C196        H198   1.081       .  S
N199        C203   1.344       .  A
N199        N200   1.320       .  A
N199       Cu207   2.069       .  S
N200        C201   1.345       .  A
N200       Cu206   2.076       .  S
C201        C202   1.390       .  A
C201        H204   1.081       .  S
C202        C708   1.488       .  S
C202        C203   1.388       .  A
C203        H205   1.081       .  S
Cu206       N209   2.077       .  S
Cu207       N217   2.069       .  S
Cu208       N210   2.082       .  S
Cu208       N216   2.082       .  S
N209        C213   1.344       .  A
N209        N210   1.322       .  A
N210        C211   1.346       .  A
C211        C212   1.390       .  A
C211        H214   1.081       .  S
C212        C686   1.490       .  S
C212        C213   1.388       .  A
C213        H215   1.081       .  S
N216        C220   1.346       .  A
N216        N217   1.321       .  A
N217        C218   1.343       .  A
C218        C219   1.387       .  A
C218        H221   1.081       .  S
C219        C774   1.488       .  S
C219        C220   1.391       .  A
C220        H222   1.081       .  S
C223        N224   1.360   1_455  A
C223        N228   1.360       .  A
C223        C664   1.486       .  S
N224        C225   1.360       .  A
C225        N226   1.359       .  A
C225        C631   1.487       .  S
N226        C227   1.359       .  A
C227        N228   1.359   1_655  A
C227        C950   1.486   1_655  S
N229        C233   1.344       .  A
N229        N230   1.321       .  A
N229       Cu237   2.077       .  S
N230        C231   1.347       .  A
N230       Cu236   2.082       .  S
C231        C232   1.390       .  A
C231        H234   1.081       .  S
C232       C1082   1.490       .  S
C232        C233   1.389       .  A
C233        H235   1.081       .  S
Cu236       N239   2.082       .  S
Cu237       N247   2.077       .  S
Cu238       N240   2.083       .  S
Cu238       N246   2.083       .  S
N239        C243   1.346       .  A
N239        N240   1.322       .  A
N240        C241   1.345       .  A
C241        C242   1.390       .  A
C241        H244   1.081       .  S
C242        C862   1.491       .  S
C242        C243   1.390       .  A
C243        H245   1.081       .  S
N246        C250   1.347       .  A
N246        N247   1.321       .  A
N247        C248   1.345       .  A
C248        C249   1.389       .  A
C248        H251   1.081       .  S
C249        C609   1.492       .  S
C249        C250   1.391       .  A
C250        H252   1.081       .  S
N253        C257   1.344       .  A
N253        N254   1.321       .  A
N253       Cu261   2.074       .  S
N254        C255   1.346       .  A
N254       Cu260   2.084       .  S
C255        C256   1.390       .  A
C255        H258   1.081       .  S
C256        C576   1.490       .  S
C256        C257   1.388       .  A
C257        H259   1.081       .  S
Cu260       N263   2.084       .  S
Cu261       N271   2.073       .  S
Cu262       N264   2.075       .  S
Cu262       N270   2.075       .  S
N263        C267   1.347       .  A
N263        N264   1.322       .  A
N264        C265   1.344       .  A
C265        C266   1.386       .  A
C265        H268   1.081       .  S
C266        C818   1.485       .  S
C266        C267   1.389       .  A
C267        H269   1.082       .  S
N270        C274   1.345       .  A
N270        N271   1.321       .  A
N271        C272   1.345       .  A
C272        C273   1.387       .  A
C272        H275   1.082       .  S
C273        C587   1.484       .  S
C273        C274   1.388       .  A
C274        H276   1.082       .  S
N277        C281   1.343       .  A
N277        N278   1.321       .  A
N277       Cu285   2.071       .  S
N278        C279   1.347       .  A
N278       Cu284   2.082       .  S
C279        C280   1.391       .  A
C279        H282   1.081       .  S
C280       C1115   1.489       .  S
C280        C281   1.387       .  A
C281        H283   1.081       .  S
Cu284       N287   2.082       .  S
Cu285       N295   2.072       .  S
Cu286       N288   2.090       .  S
Cu286       N294   2.089       .  S
N287        C291   1.347       .  A
N287        N288   1.323       .  A
N288        C289   1.346       .  A
C289        C290   1.390       .  A
C289        H292   1.081       .  S
C290        C642   1.492       .  S
C290        C291   1.389       .  A
C291        H293   1.081       .  S
N294        C298   1.348       .  A
N294        N295   1.320       .  A
N295        C296   1.344       .  A
C296        C297   1.389       .  A
C296        H299   1.081       .  S
C297        C543   1.494       .  S
C297        C298   1.393       .  A
C298        H300   1.081       .  S
N301        C305   1.347       .  A
N301        N302   1.322       .  A
N301       Cu309   2.082       .  S
N302        C303   1.346       .  A
N302       Cu308   2.085       .  S
C303        C304   1.389       .  A
C303        H306   1.081       .  S
C304        C554   1.491       .  S
C304        C305   1.389       .  A
C305        H307   1.081       .  S
Cu308       N311   2.085       .  S
Cu309       N319   2.082       .  S
Cu310       N312   2.077       .  S
Cu310       N318   2.077       .  S
N311        C315   1.346       .  A
N311        N312   1.321       .  A
N312        C313   1.345       .  A
C313        C314   1.390       .  A
C313        H316   1.081       .  S
C314        C620   1.493       .  S
C314        C315   1.391       .  A
C315        H317   1.081       .  S
N318        C322   1.345       .  A
N318        N319   1.322       .  A
N319        C320   1.345       .  A
C320        C321   1.389       .  A
C320        H323   1.081       .  S
C321        C598   1.489       .  S
C321        C322   1.388       .  A
C322        H324   1.081       .  S
C325        N326   1.360       .  A
C325        N330   1.361       .  A
C325        C565   1.487       .  S
N326        C327   1.359       .  A
C327        N328   1.359       .  A
C327        C521   1.486       .  S
N328        C329   1.360       .  A
C329        N330   1.361       .  A
C329        C741   1.487       .  S
C331        N332   1.360       .  A
C331        N336   1.359       .  A
C331        C510   1.486       .  S
N332        C333   1.360       .  A
C333        N334   1.360       .  A
C333        C719   1.487       .  S
N334        C335   1.360       .  A
C335        N336   1.359       .  A
C335        C983   1.485       .  S
N337        C341   1.342       .  A
N337        N338   1.321       .  A
N337       Cu345   2.068       .  S
N338        C339   1.347       .  A
N338       Cu344   2.084       .  S
C339        C340   1.392       .  A
C339        H342   1.081       .  S
C340        C653   1.490       .  S
C340        C341   1.387       .  A
C341        H343   1.080       .  S
Cu344       N347   2.084       .  S
Cu345       N355   2.068       .  S
Cu346       N348   2.079       .  S
Cu346       N354   2.078       .  S
N347        C351   1.346       .  A
N347        N348   1.322       .  A
N348        C349   1.344       .  A
C349        C350   1.388       .  A
C349        H352   1.081       .  S
C350        C532   1.490       .  S
C350        C351   1.390       .  A
C351        H353   1.081       .  S
N354        C358   1.346       .  A
N354        N355   1.320       .  A
N355        C356   1.343       .  A
C356        C357   1.388       .  A
C356        H359   1.081       .  S
C357        C477   1.488       .  S
C357        C358   1.390       .  A
C358        H360   1.081       .  S
N361        C365   1.343       .  A
N361        N362   1.321       .  A
N361       Cu369   2.074       .  S
N362        C363   1.346       .  A
N362       Cu368   2.080       .  S
C363        C364   1.390       .  A
C363        H366   1.081       .  S
C364        C829   1.490       .  S
C364        C365   1.389       .  A
C365        H367   1.081       .  S
Cu368       N371   2.080       .  S
Cu369       N379   2.074       .  S
Cu370       N372   2.077       .  S
Cu370       N378   2.077       .  S
N371        C375   1.345       .  A
N371        N372   1.321       .  A
N372        C373   1.345       .  A
C373        C374   1.389       .  A
C373        H376   1.081       .  S
C374       C1214   1.490       .  S
C374        C375   1.389       .  A
C375        H377   1.081       .  S
N378        C382   1.345       .  A
N378        N379   1.321       .  A
N379        C380   1.345       .  A
C380        C381   1.389       .  A
C380        H383   1.081       .  S
C381        C455   1.489       .  S
C381        C382   1.389       .  A
C382        H384   1.081       .  S
N385        C389   1.343       .  A
N385        N386   1.320       .  A
N385       Cu393   2.069       .  S
N386        C387   1.345       .  A
N386       Cu392   2.076       .  S
C387        C388   1.390       .  A
C387        H390   1.081       .  S
C388        C499   1.487       .  S
C388        C389   1.388       .  A
C389        H391   1.081       .  S
Cu392       N395   2.076       .  S
Cu393       N403   2.069       .  S
Cu394       N396   2.080       .  S
Cu394       N402   2.080       .  S
N395        C399   1.345       .  A
N395        N396   1.322       .  A
N396        C397   1.345       .  A
C397        C398   1.388       .  A
C397        H400   1.081       .  S
C398       C1060   1.486       .  S
C398        C399   1.387       .  A
C399        H401   1.081       .  S
N402        C406   1.346       .  A
N402        N403   1.320       .  A
N403        C404   1.343       .  A
C404        C405   1.388       .  A
C404        H407   1.081       .  S
C405        C433   1.489       .  S
C405        C406   1.391       .  A
C406        H408   1.081       .  S
N409        C413   1.345       .  A
N409        N410   1.321       .  A
N409       Cu417   2.079       .  S
N410        C411   1.345       .  A
N410       Cu416   2.077       .  S
C411        C412   1.390       .  A
C411        H414   1.081       .  S
C412        C444   1.490       .  S
C412        C413   1.390       .  A
C413        H415   1.081       .  S
Cu416       N419   2.077       .  S
Cu417       N427   2.079       .  S
Cu418       N420   2.079       .  S
Cu418       N426   2.079       .  S
N419        C423   1.346       .  A
N419        N420   1.321       .  A
N420        C421   1.345       .  A
C421        C422   1.388       .  A
C421        H424   1.081       .  S
C422        C488   1.487       .  S
C422        C423   1.388       .  A
C423        H425   1.081       .  S
N426        C430   1.346       .  A
N426        N427   1.321       .  A
N427        C428   1.345       .  A
C428        C429   1.389       .  A
C428        H431   1.081       .  S
C429        C466   1.490       .  S
C429        C430   1.390       .  A
C430        H432   1.081       .  S
C433        C434   1.410       .  A
C433        C438   1.409       .  A
C434        C435   1.399       .  A
C434        H447   1.081       .  S
C435        C436   1.398       .  A
C435        H448   1.084   1_655  S
C436        C437   1.399       .  A
C436        C439   1.441   1_655  S
C437        C438   1.399       .  A
C437        H449   1.083       .  S
C438        H450   1.081       .  S
C439        C440   1.207       .  T
C440        C441   1.442       .  S
C441        C442   1.398       .  A
C441        C446   1.399       .  A
C442        C443   1.399       .  A
C442        H451   1.084       .  S
C443        C444   1.409       .  A
C443        H452   1.081       .  S
C444        C445   1.409       .  A
C445        C446   1.400       .  A
C445        H453   1.081       .  S
C446        H454   1.083       .  S
C455        C456   1.409       .  A
C455        C460   1.409       .  A
C456        C457   1.399       .  A
C456        H469   1.081       .  S
C457        C458   1.399       .  A
C457        H470   1.084       .  S
C458        C459   1.400       .  A
C458        C461   1.443       .  S
C459        C460   1.400       .  A
C459        H471   1.083       .  S
C460        H472   1.081       .  S
C461        C462   1.208       .  T
C462        C463   1.443       .  S
C463        C464   1.400       .  A
C463        C468   1.399       .  A
C464        C465   1.400       .  A
C464        H473   1.084       .  S
C465        C466   1.409       .  A
C465        H474   1.081       .  S
C466        C467   1.409       .  A
C467        C468   1.399       .  A
C467        H475   1.081       .  S
C468        H476   1.084       .  S
C477        C478   1.408       .  A
C477        C482   1.409       .  A
C478        C479   1.400       .  A
C478        H491   1.081       .  S
C479        C480   1.400       .  A
C479        H492   1.083       .  S
C480        C481   1.399       .  A
C480        C483   1.442       .  S
C481        C482   1.399       .  A
C481        H493   1.084       .  S
C482        H494   1.081       .  S
C483        C484   1.207       .  T
C484        C485   1.442       .  S
C485        C486   1.400       .  A
C485        C490   1.399       .  A
C486        C487   1.400       .  A
C486        H495   1.083       .  S
C487        C488   1.408       .  A
C487        H496   1.082       .  S
C488        C489   1.408       .  A
C489        C490   1.399       .  A
C489        H497   1.081       .  S
C490        H498   1.084       .  S
C499        C500   1.409       .  A
C499        C504   1.408       .  A
C500        C501   1.400       .  A
C500        H513   1.081       .  S
C501        C502   1.399       .  A
C501        H514   1.084       .  S
C502        C503   1.398       .  A
C502        C505   1.441       .  S
C503        C504   1.397       .  A
C503        H515   1.083       .  S
C504        H516   1.081       .  S
C505        C506   1.207       .  T
C506        C507   1.441       .  S
C507        C508   1.399       .  A
C507        C512   1.400       .  A
C508        C509   1.398   1_556  A
C508        H517   1.084       .  S
C509        C510   1.408       .  A
C509        H518   1.083       .  S
C510        C511   1.409       .  A
C511        C512   1.400   1_554  A
C511        H519   1.083       .  S
C512        H520   1.083       .  S
C521        C522   1.409       .  A
C521        C526   1.408       .  A
C522        C523   1.400       .  A
C522        H535   1.083       .  S
C523        C524   1.400       .  A
C523        H536   1.083       .  S
C524        C525   1.400       .  A
C524        C527   1.443       .  S
C525        C526   1.399       .  A
C525        H537   1.084       .  S
C526        H538   1.083       .  S
C527        C528   1.208       .  T
C528        C529   1.443       .  S
C529        C530   1.398       .  A
C529        C534   1.400       .  A
C530        C531   1.398       .  A
C530        H539   1.084       .  S
C531        C532   1.409       .  A
C531        H540   1.081       .  S
C532        C533   1.409       .  A
C533        C534   1.401       .  A
C533        H541   1.081       .  S
C534        H542   1.083       .  S
C543        C544   1.409       .  A
C543        C548   1.411       .  A
C544        C545   1.401       .  A
C544        H557   1.081       .  S
C545        C546   1.400       .  A
C545        H558   1.083   1_565  S
C546        C547   1.400       .  A
C546        C549   1.447   1_565  S
C547        C548   1.401       .  A
C547        H559   1.084       .  S
C548        H560   1.081       .  S
C549        C550   1.211       .  T
C550        C551   1.447       .  S
C551        C552   1.401       .  A
C551        C556   1.400       .  A
C552        C553   1.402       .  A
C552        H561   1.083       .  S
C553        C554   1.409       .  A
C553        H562   1.082       .  S
C554        C555   1.408       .  A
C555        C556   1.401       .  A
C555        H563   1.082       .  S
C556        H564   1.083       .  S
C565        C566   1.409       .  A
C565        C570   1.409       .  A
C566        C567   1.399       .  A
C566        H579   1.083       .  S
C567        C568   1.399       .  A
C567        H580   1.084       .  S
C568        C569   1.400       .  A
C568        C571   1.443       .  S
C569        C570   1.401       .  A
C569        H581   1.083       .  S
C570        H582   1.083       .  S
C571        C572   1.208       .  T
C572        C573   1.443       .  S
C573        C574   1.399       .  A
C573        C578   1.400       .  A
C574        C575   1.399       .  A
C574        H583   1.084       .  S
C575        C576   1.409       .  A
C575        H584   1.081       .  S
C576        C577   1.409       .  A
C577        C578   1.401       .  A
C577        H585   1.081       .  S
C578        H586   1.083       .  S
C587        C588   1.407       .  A
C587        C592   1.407       .  A
C588        C589   1.399       .  A
C588        H601   1.082       .  S
C589        C590   1.400       .  A
C589        H602   1.083       .  S
C590        C591   1.400       .  A
C590        C593   1.442       .  S
C591        C592   1.399       .  A
C591        H603   1.083       .  S
C592        H604   1.082       .  S
C593        C594   1.207       .  T
C594        C595   1.442       .  S
C595        C596   1.399       .  A
C595        C600   1.399       .  A
C596        C597   1.400       .  A
C596        H605   1.084       .  S
C597        C598   1.409       .  A
C597        H606   1.081       .  S
C598        C599   1.408       .  A
C599        C600   1.399       .  A
C599        H607   1.081       .  S
C600        H608   1.083       .  S
C609        C610   1.409       .  A
C609        C614   1.410       .  A
C610        C611   1.401       .  A
C610        H623   1.081       .  S
C611        C612   1.400       .  A
C611        H624   1.083       .  S
C612        C613   1.400       .  A
C612        C615   1.446       .  S
C613        C614   1.401       .  A
C613        H625   1.083       .  S
C614        H626   1.081       .  S
C615        C616   1.210       .  T
C616        C617   1.446       .  S
C617        C618   1.400       .  A
C617        C622   1.400       .  A
C618        C619   1.401       .  A
C618        H627   1.083       .  S
C619        C620   1.409       .  A
C619        H628   1.081       .  S
C620        C621   1.410       .  A
C621        C622   1.401       .  A
C621        H629   1.081       .  S
C622        H630   1.084       .  S
C631        C632   1.408       .  A
C631        C636   1.409       .  A
C632        C633   1.400       .  A
C632        H645   1.083       .  S
C633        C634   1.400       .  A
C633        H646   1.083       .  S
C634        C635   1.400       .  A
C634        C637   1.444       .  S
C635        C636   1.400       .  A
C635        H647   1.083       .  S
C636        H648   1.083       .  S
C637        C638   1.209       .  T
C638        C639   1.444       .  S
C639        C640   1.399       .  A
C639        C644   1.400       .  A
C640        C641   1.399       .  A
C640        H649   1.083       .  S
C641        C642   1.408       .  A
C641        H650   1.081       .  S
C642        C643   1.410       .  A
C643        C644   1.402       .  A
C643        H651   1.081       .  S
C644        H652   1.084       .  S
C653        C654   1.410       .  A
C653        C658   1.409       .  A
C654        C655   1.398       .  A
C654        H667   1.081       .  S
C655        C656   1.398       .  A
C655        H668   1.084       .  S
C656        C657   1.400       .  A
C656        C659   1.442       .  S
C657        C658   1.401       .  A
C657        H669   1.083       .  S
C658        H670   1.081       .  S
C659        C660   1.207       .  T
C660        C661   1.442       .  S
C661        C662   1.400       .  A
C661        C666   1.399       .  A
C662        C663   1.399   1_545  A
C662        H671   1.083       .  S
C663        C664   1.408       .  A
C663        H672   1.083       .  S
C664        C665   1.409       .  A
C665        C666   1.400   1_565  A
C665        H673   1.082       .  S
C666        H674   1.084       .  S
C675        C676   1.409       .  A
C675        C680   1.410       .  A
C676        C677   1.399       .  A
C676        H689   1.081       .  S
C677        C678   1.399       .  A
C677        H690   1.083       .  S
C678        C679   1.399       .  A
C678        C681   1.443       .  S
C679        C680   1.400       .  A
C679        H691   1.084       .  S
C680        H692   1.081       .  S
C681        C682   1.208       .  T
C682        C683   1.443       .  S
C683        C684   1.399       .  A
C683        C688   1.399       .  A
C684        C685   1.400       .  A
C684        H693   1.083       .  S
C685        C686   1.409       .  A
C685        H694   1.081       .  S
C686        C687   1.410       .  A
C687        C688   1.400       .  A
C687        H695   1.081       .  S
C688        H696   1.084       .  S
C697        C698   1.409       .  A
C697        C702   1.409       .  A
C698        C699   1.400       .  A
C698        H711   1.081       .  S
C699        C700   1.399       .  A
C699        H712   1.083       .  S
C700        C701   1.399       .  A
C700        C703   1.441       .  S
C701        C702   1.399       .  A
C701        H713   1.083       .  S
C702        H714   1.081       .  S
C703        C704   1.207       .  T
C704        C705   1.441       .  S
C705        C706   1.399       .  A
C705        C710   1.399       .  A
C706        C707   1.399       .  A
C706        H715   1.084       .  S
C707        C708   1.409       .  A
C707        H716   1.081       .  S
C708        C709   1.409       .  A
C709        C710   1.399       .  A
C709        H717   1.081       .  S
C710        H718   1.084       .  S
C719        C720   1.409       .  A
C719        C724   1.409       .  A
C720        C721   1.400       .  A
C720        H733   1.083       .  S
C721        C722   1.400   1_655  A
C721        H734   1.083   1_655  S
C722        C723   1.400       .  A
C722        C725   1.443       .  S
C723        C724   1.400   1_455  A
C723        H735   1.083       .  S
C724        H736   1.083       .  S
C725        C726   1.208       .  T
C726        C727   1.444       .  S
C727        C728   1.399       .  A
C727        C732   1.399       .  A
C728        C729   1.400       .  A
C728        H737   1.084       .  S
C729        C730   1.409       .  A
C729        H738   1.081       .  S
C730        C731   1.410       .  A
C731        C732   1.399       .  A
C731        H739   1.081       .  S
C732        H740   1.083       .  S
C741        C742   1.408       .  A
C741        C746   1.409       .  A
C742        C743   1.401       .  A
C742        H755   1.083       .  S
C743        C744   1.401       .  A
C743        H756   1.083       .  S
C744        C745   1.399       .  A
C744        C747   1.443       .  S
C745        C746   1.399       .  A
C745        H757   1.083       .  S
C746        H758   1.083       .  S
C747        C748   1.208       .  T
C748        C749   1.443       .  S
C749        C750   1.398       .  A
C749        C754   1.401       .  A
C750        C751   1.398       .  A
C750        H759   1.084       .  S
C751        C752   1.409       .  A
C751        H760   1.081       .  S
C752        C753   1.409       .  A
C753        C754   1.402       .  A
C753        H761   1.081       .  S
C754        H762   1.083       .  S
C763        C764   1.408       .  A
C763        C768   1.409       .  A
C764        C765   1.399       .  A
C764        H777   1.081       .  S
C765        C766   1.399       .  A
C765        H778   1.084       .  S
C766        C767   1.399       .  A
C766        C769   1.440       .  S
C767        C768   1.399       .  A
C767        H779   1.084       .  S
C768        H780   1.081       .  S
C769        C770   1.206       .  T
C770        C771   1.440       .  S
C771        C772   1.398       .  A
C771        C776   1.399       .  A
C772        C773   1.399       .  A
C772        H781   1.084       .  S
C773        C774   1.410       .  A
C773        H782   1.081       .  S
C774        C775   1.408       .  A
C775        C776   1.399       .  A
C775        H783   1.081       .  S
C776        H784   1.084       .  S
C785        C786   1.408       .  A
C785        C790   1.409       .  A
C786        C787   1.401       .  A
C786        H799   1.082       .  S
C787        C788   1.400       .  A
C787        H800   1.083       .  S
C788        C789   1.399       .  A
C788        C791   1.444       .  S
C789        C790   1.399       .  A
C789        H801   1.084   1_556  S
C790        H802   1.081   1_556  S
C791        C792   1.208       .  T
C792        C793   1.444       .  S
C793        C794   1.400   1_556  A
C793        C798   1.400       .  A
C794        C795   1.401       .  A
C794        H803   1.083       .  S
C795        C796   1.409   1_554  A
C795        H804   1.083       .  S
C796        C797   1.409       .  A
C797        C798   1.400       .  A
C797        H805   1.083       .  S
C798        H806   1.084       .  S
C807        C808   1.408       .  A
C807        C812   1.409       .  A
C808        C809   1.400       .  A
C808        H821   1.083   1_545  S
C809        C810   1.400       .  A
C809        H822   1.083       .  S
C810        C811   1.399       .  A
C810        C813   1.443       .  S
C811        C812   1.400       .  A
C811        H823   1.084       .  S
C812        H824   1.083       .  S
C813        C814   1.208       .  T
C814        C815   1.443       .  S
C815        C816   1.400       .  A
C815        C820   1.400       .  A
C816        C817   1.401       .  A
C816        H825   1.083       .  S
C817        C818   1.407       .  A
C817        H826   1.082       .  S
C818        C819   1.408       .  A
C819        C820   1.399       .  A
C819        H827   1.082       .  S
C820        H828   1.083       .  S
C829        C830   1.409       .  A
C829        C834   1.409       .  A
C830        C831   1.398       .  A
C830        H843   1.081       .  S
C831        C832   1.398       .  A
C831        H844   1.083       .  S
C832        C833   1.400       .  A
C832        C835   1.442       .  S
C833        C834   1.401       .  A
C833        H845   1.084       .  S
C834        H846   1.081       .  S
C835        C836   1.208       .  T
C836        C837   1.442       .  S
C837        C838   1.399       .  A
C837        C842   1.400       .  A
C838        C839   1.399       .  A
C838        H847   1.084       .  S
C839        C840   1.409       .  A
C839        H848   1.083       .  S
C840        C841   1.409       .  A
C841        C842   1.400       .  A
C841        H849   1.083       .  S
C842        H850   1.083       .  S
C851        C852   1.409       .  A
C851        C856   1.409       .  A
C852        C853   1.400       .  A
C852        H865   1.083       .  S
C853        C854   1.400       .  A
C853        H866   1.083       .  S
C854        C855   1.400       .  A
C854        C857   1.443       .  S
C855        C856   1.399       .  A
C855        H867   1.083       .  S
C856        H868   1.083       .  S
C857        C858   1.208       .  T
C858        C859   1.443       .  S
C859        C860   1.399       .  A
C859        C864   1.399       .  A
C860        C861   1.399       .  A
C860        H869   1.084       .  S
C861        C862   1.409       .  A
C861        H870   1.081       .  S
C862        C863   1.410       .  A
C863        C864   1.401       .  A
C863        H871   1.081       .  S
C864        H872   1.084       .  S
C873        C874   1.410       .  A
C873        C878   1.409       .  A
C874        C875   1.402       .  A
C874        H887   1.081       .  S
C875        C876   1.400       .  A
C875        H888   1.083       .  S
C876        C877   1.398       .  A
C876        C879   1.443       .  S
C877        C878   1.397       .  A
C877        H889   1.084       .  S
C878        H890   1.080       .  S
C879        C880   1.208       .  T
C880        C881   1.443       .  S
C881        C882   1.400       .  A
C881        C886   1.399       .  A
C882        C883   1.400       .  A
C882        H891   1.083       .  S
C883        C884   1.408       .  A
C883        H892   1.083       .  S
C884        C885   1.409       .  A
C885        C886   1.399       .  A
C885        H893   1.083       .  S
C886        H894   1.083       .  S
C895        C896   1.408       .  A
C895        C900   1.408       .  A
C896        C897   1.400       .  A
C896        H909   1.082       .  S
C897        C898   1.400       .  A
C897        H910   1.084       .  S
C898        C899   1.399       .  A
C898        C901   1.443       .  S
C899        C900   1.399       .  A
C899        H911   1.083   1_545  S
C900        H912   1.082   1_545  S
C901        C902   1.208       .  T
C902        C903   1.443       .  S
C903        C904   1.400   1_545  A
C903        C908   1.400       .  A
C904        C905   1.400       .  A
C904        H913   1.083       .  S
C905        C906   1.408   1_565  A
C905        H914   1.083       .  S
C906        C907   1.408       .  A
C907        C908   1.399       .  A
C907        H915   1.083   1_556  S
C908        H916   1.083       .  S
C917        C918   1.409       .  A
C917        C922   1.409       .  A
C918        C919   1.399       .  A
C918        H931   1.081       .  S
C919        C920   1.399       .  A
C919        H932   1.084       .  S
C920        C921   1.398       .  A
C920        C923   1.441       .  S
C921        C922   1.399       .  A
C921        H933   1.084       .  S
C922        H934   1.081       .  S
C923        C924   1.206       .  T
C924        C925   1.441       .  S
C925        C926   1.399       .  A
C925        C930   1.399       .  A
C926        C927   1.399       .  A
C926        H935   1.084       .  S
C927        C928   1.409       .  A
C927        H936   1.081       .  S
C928        C929   1.408       .  A
C929        C930   1.398       .  A
C929        H937   1.081       .  S
C930        H938   1.084       .  S
C939        C940   1.409       .  A
C939        C944   1.409       .  A
C940        C941   1.398       .  A
C940        H953   1.081       .  S
C941        C942   1.398       .  A
C941        H954   1.083   1_455  S
C942        C943   1.400       .  A
C942        C945   1.442       .  S
C943        C944   1.401       .  A
C943        H955   1.084       .  S
C944        H956   1.081       .  S
C945        C946   1.207       .  T
C946        C947   1.442       .  S
C947        C948   1.400       .  A
C947        C952   1.399   1_455  A
C948        C949   1.400       .  A
C948        H957   1.083       .  S
C949        C950   1.409       .  A
C949        H958   1.083       .  S
C950        C951   1.408   1_455  A
C951        C952   1.399       .  A
C951        H959   1.083       .  S
C952        H960   1.083       .  S
C961        C962   1.409       .  A
C961        C966   1.410       .  A
C962        C963   1.400       .  A
C962        H975   1.081       .  S
C963        C964   1.399       .  A
C963        H976   1.083       .  S
C964        C965   1.399       .  A
C964        C967   1.443       .  S
C965        C966   1.399       .  A
C965        H977   1.084       .  S
C966        H978   1.081       .  S
C967        C968   1.208       .  T
C968        C969   1.443       .  S
C969        C970   1.399       .  A
C969        C974   1.400       .  A
C970        C971   1.399       .  A
C970        H979   1.084       .  S
C971        C972   1.408       .  A
C971        H980   1.081       .  S
C972        C973   1.408       .  A
C973        C974   1.400       .  A
C973        H981   1.082       .  S
C974        H982   1.083       .  S
C983        C984   1.408       .  A
C983        C988   1.409       .  A
C984        C985   1.399       .  A
C984        H997   1.083       .  S
C985        C986   1.399       .  A
C985        H998   1.084       .  S
C986        C987   1.400       .  A
C986        C989   1.441       .  S
C987        C988   1.399       .  A
C987        H999   1.083       .  S
C988       H1000   1.083       .  S
C989        C990   1.207       .  T
C990        C991   1.442       .  S
C991        C992   1.398       .  A
C991        C996   1.399       .  A
C992        C993   1.398       .  A
C992       H1001   1.084       .  S
C993        C994   1.409       .  A
C993       H1002   1.081       .  S
C994        C995   1.410       .  A
C995        C996   1.400       .  A
C995       H1003   1.081       .  S
C996       H1004   1.083       .  S
C1005      C1006   1.409       .  A
C1005      C1010   1.408       .  A
C1006      C1007   1.400       .  A
C1006      H1019   1.081       .  S
C1007      C1008   1.399       .  A
C1007      H1020   1.084       .  S
C1008      C1009   1.399       .  A
C1008      C1011   1.442   1_554  S
C1009      C1010   1.399       .  A
C1009      H1021   1.084   1_554  S
C1010      H1022   1.081       .  S
C1011      C1012   1.207       .  T
C1012      C1013   1.442       .  S
C1013      C1014   1.400       .  A
C1013      C1018   1.399       .  A
C1014      C1015   1.400       .  A
C1014      H1023   1.083       .  S
C1015      C1016   1.408       .  A
C1015      H1024   1.082       .  S
C1016      C1017   1.408       .  A
C1017      C1018   1.399       .  A
C1017      H1025   1.082       .  S
C1018      H1026   1.083       .  S
C1027      C1028   1.409       .  A
C1027      C1032   1.409       .  A
C1028      C1029   1.399       .  A
C1028      H1041   1.081       .  S
C1029      C1030   1.399       .  A
C1029      H1042   1.084       .  S
C1030      C1031   1.399       .  A
C1030      C1033   1.441       .  S
C1031      C1032   1.399       .  A
C1031      H1043   1.083       .  S
C1032      H1044   1.081       .  S
C1033      C1034   1.207       .  T
C1034      C1035   1.442       .  S
C1035      C1036   1.400       .  A
C1035      C1040   1.399       .  A
C1036      C1037   1.400       .  A
C1036      H1045   1.083       .  S
C1037      C1038   1.409       .  A
C1037      H1046   1.083       .  S
C1038      C1039   1.409       .  A
C1039      C1040   1.399       .  A
C1039      H1047   1.083       .  S
C1040      H1048   1.084       .  S
C1049      C1050   1.409       .  A
C1049      C1054   1.408       .  A
C1050      C1051   1.400       .  A
C1050      H1063   1.083       .  S
C1051      C1052   1.400       .  A
C1051      H1064   1.083       .  S
C1052      C1053   1.399       .  A
C1052      C1055   1.442       .  S
C1053      C1054   1.398       .  A
C1053      H1065   1.084       .  S
C1054      H1066   1.083       .  S
C1055      C1056   1.207       .  T
C1056      C1057   1.442       .  S
C1057      C1058   1.399       .  A
C1057      C1062   1.399       .  A
C1058      C1059   1.399       .  A
C1058      H1067   1.083       .  S
C1059      C1060   1.408       .  A
C1059      H1068   1.082       .  S
C1060      C1061   1.409       .  A
C1061      C1062   1.400       .  A
C1061      H1069   1.081       .  S
C1062      H1070   1.084       .  S
C1071      C1072   1.408       .  A
C1071      C1076   1.409       .  A
C1072      C1073   1.400       .  A
C1072      H1085   1.083       .  S
C1073      C1074   1.400       .  A
C1073      H1086   1.083       .  S
C1074      C1075   1.400       .  A
C1074      C1077   1.444       .  S
C1075      C1076   1.400       .  A
C1075      H1087   1.083       .  S
C1076      H1088   1.083       .  S
C1077      C1078   1.208       .  T
C1078      C1079   1.444       .  S
C1079      C1080   1.400       .  A
C1079      C1084   1.399       .  A
C1080      C1081   1.401       .  A
C1080      H1089   1.083       .  S
C1081      C1082   1.409       .  A
C1081      H1090   1.081       .  S
C1082      C1083   1.409       .  A
C1083      C1084   1.399       .  A
C1083      H1091   1.081       .  S
C1084      H1092   1.084       .  S
C1093      C1094   1.408       .  A
C1093      C1098   1.409       .  A
C1094      C1095   1.400       .  A
C1094      H1107   1.083       .  S
C1095      C1096   1.400       .  A
C1095      H1108   1.083       .  S
C1096      C1097   1.399       .  A
C1096      C1099   1.443       .  S
C1097      C1098   1.399       .  A
C1097      H1109   1.083       .  S
C1098      H1110   1.083       .  S
C1099      C1100   1.208       .  T
C1100      C1101   1.443       .  S
C1101      C1102   1.400       .  A
C1101      C1106   1.398       .  A
C1102      C1103   1.402       .  A
C1102      H1111   1.083       .  S
C1103      C1104   1.410       .  A
C1103      H1112   1.081       .  S
C1104      C1105   1.409       .  A
C1105      C1106   1.398       .  A
C1105      H1113   1.081       .  S
C1106      H1114   1.084       .  S
C1115      C1116   1.409       .  A
C1115      C1120   1.408       .  A
C1116      C1117   1.399       .  A
C1116      H1129   1.081       .  S
C1117      C1118   1.399       .  A
C1117      H1130   1.083       .  S
C1118      C1119   1.400       .  A
C1118      C1121   1.443       .  S
C1119      C1120   1.401       .  A
C1119      H1131   1.084       .  S
C1120      H1132   1.081       .  S
C1121      C1122   1.208       .  T
C1122      C1123   1.443       .  S
C1123      C1124   1.400       .  A
C1123      C1128   1.400       .  A
C1124      C1125   1.400       .  A
C1124      H1133   1.083       .  S
C1125      C1126   1.408       .  A
C1125      H1134   1.083       .  S
C1126      C1127   1.409       .  A
C1127      C1128   1.400       .  A
C1127      H1135   1.083       .  S
C1128      H1136   1.084       .  S
C1137      C1138   1.408       .  A
C1137      C1142   1.409       .  A
C1138      C1139   1.399       .  A
C1138      H1151   1.083       .  S
C1139      C1140   1.400       .  A
C1139      H1152   1.083       .  S
C1140      C1141   1.400       .  A
C1140      C1143   1.443       .  S
C1141      C1142   1.400       .  A
C1141      H1153   1.083       .  S
C1142      H1154   1.083       .  S
C1143      C1144   1.208       .  T
C1144      C1145   1.443       .  S
C1145      C1146   1.399       .  A
C1145      C1150   1.400       .  A
C1146      C1147   1.399       .  A
C1146      H1155   1.083       .  S
C1147      C1148   1.409       .  A
C1147      H1156   1.081       .  S
C1148      C1149   1.409       .  A
C1149      C1150   1.401       .  A
C1149      H1157   1.081       .  S
C1150      H1158   1.084       .  S
C1159      C1160   1.408       .  A
C1159      C1164   1.408       .  A
C1160      C1161   1.397       .  A
C1160      H1173   1.081       .  S
C1161      C1162   1.398       .  A
C1161      H1174   1.083       .  S
C1162      C1163   1.400       .  A
C1162      C1165   1.441       .  S
C1163      C1164   1.401       .  A
C1163      H1175   1.084       .  S
C1164      H1176   1.082       .  S
C1165      C1166   1.207       .  T
C1166      C1167   1.441       .  S
C1167      C1168   1.399       .  A
C1167      C1172   1.399       .  A
C1168      C1169   1.399       .  A
C1168      H1177   1.083       .  S
C1169      C1170   1.408       .  A
C1169      H1178   1.083       .  S
C1170      C1171   1.408       .  A
C1171      C1172   1.398       .  A
C1171      H1179   1.083       .  S
C1172      H1180   1.084       .  S
C1181      C1182   1.408       .  A
C1181      C1186   1.408       .  A
C1182      C1183   1.398       .  A
C1182      H1195   1.082       .  S
C1183      C1184   1.398       .  A
C1183      H1196   1.084       .  S
C1184      C1185   1.401       .  A
C1184      C1187   1.442       .  S
C1185      C1186   1.401       .  A
C1185      H1197   1.083       .  S
C1186      H1198   1.082       .  S
C1187      C1188   1.208       .  T
C1188      C1189   1.442       .  S
C1189      C1190   1.399       .  A
C1189      C1194   1.401       .  A
C1190      C1191   1.398       .  A
C1190      H1199   1.084       .  S
C1191      C1192   1.409       .  A
C1191      H1200   1.083       .  S
C1192      C1193   1.408       .  A
C1193      C1194   1.401       .  A
C1193      H1201   1.083       .  S
C1194      H1202   1.083       .  S
C1203      C1204   1.409       .  A
C1203      C1208   1.408       .  A
C1204      C1205   1.398       .  A
C1204      H1217   1.083       .  S
C1205      C1206   1.399       .  A
C1205      H1218   1.084       .  S
C1206      C1207   1.400       .  A
C1206      C1209   1.442       .  S
C1207      C1208   1.400       .  A
C1207      H1219   1.083       .  S
C1208      H1220   1.083       .  S
C1209      C1210   1.207       .  T
C1210      C1211   1.442       .  S
C1211      C1212   1.399       .  A
C1211      C1216   1.399       .  A
C1212      C1213   1.399       .  A
C1212      H1221   1.084       .  S
C1213      C1214   1.409       .  A
C1213      H1222   1.081       .  S
C1214      C1215   1.409       .  A
C1215      C1216   1.399       .  A
C1215      H1223   1.081       .  S
C1216      H1224   1.083       .  S
