geometry optimzed in LAMMPS
_audit_creation_date              2020-11-30 
_audit_creation_method            'lammps2cif' 
_symmetry_space_group_name_H-M    'P1' 
_symmetry_Int_Tables_number       1 
_symmetry_cell_setting            triclinic 
loop_ 
_symmetry_equiv_pos_as_xyz 
  x,y,z 
_cell_length_a                    38.283879803583474 
_cell_length_b                    38.429148333895654 
_cell_length_c                    38.855949545330546 
_cell_angle_alpha                 90.2885235725712 
_cell_angle_beta                  90.0866534384696 
_cell_angle_gamma                 90.67547494999614 
loop_ 
_atom_site_label 
_atom_site_type_symbol 
_atom_site_fract_x 
_atom_site_fract_y 
_atom_site_fract_z 
_atom_site_charge 
C1          C  0.12263097  0.85324865  0.46676533     0.01880
C2          C  0.09944054  0.84951349  0.49697140     0.01880
C3          C  0.11986638  0.85269082  0.52878878     0.01880
C4          C  0.14727688  0.88023035  0.53217695     0.01880
C5          C  0.15480419  0.90071966  0.50132555     0.01880
C6          C  0.15115463  0.88045648  0.46924983     0.01880
C7          C  0.14656165  0.08274465  0.47084434     0.01880
C8          C  0.15093391  0.06382257  0.50281024     0.01880
C9          C  0.14521863  0.08591551  0.53276734     0.01880
C10         C  0.11629810  0.11114005  0.53022242     0.01880
C11         C  0.09547860  0.11191910  0.49864475     0.01880
C12         C  0.11740026  0.10805990  0.46819681     0.01880
C13         C  0.91036817  0.11563858  0.52773216     0.01880
C14         C  0.93110375  0.11753663  0.49625313     0.01880
C15         C  0.90995263  0.10904816  0.46629716     0.01880
C16         C  0.88457633  0.07940654  0.46903122     0.01880
C17         C  0.88318286  0.05983787  0.50174443     0.01880
C18         C  0.88760407  0.08400631  0.53089581     0.01880
C19         C  0.91202082  0.84163205  0.53167137     0.01880
C20         C  0.93343532  0.83730966  0.50053806     0.01880
C21         C  0.91239388  0.84181067  0.46938352     0.01880
C22         C  0.88631573  0.87045594  0.46917731     0.01880
C23         C  0.88456637  0.89298201  0.50004579     0.01880
C24         C  0.88771707  0.87227423  0.53134048     0.01880
C25         C  0.48605647  0.10114067  0.09896406     0.01880
C26         C  0.51790144  0.10131961  0.07692839     0.01880
C27         C  0.54934474  0.09812181  0.09799278     0.01880
C28         C  0.54721839  0.07413044  0.12811955     0.01880
C29         C  0.51571392  0.05320091  0.12924635     0.01880
C30         C  0.48510696  0.07570713  0.12771243     0.01880
C31         C  0.49239718  0.10882284  0.89223129     0.01880
C32         C  0.52436397  0.10584876  0.91341304     0.01880
C33         C  0.55501308  0.10227993  0.89077251     0.01880
C34         C  0.55208971  0.07913869  0.86062824     0.01880
C35         C  0.51869665  0.06159205  0.85572683     0.01880
C36         C  0.49113392  0.08721920  0.85978467     0.01880
C37         C  0.54968162  0.83848777  0.09422540     0.01880
C38         C  0.55306805  0.86868624  0.11922461     0.01880
C39         C  0.52164763  0.89044003  0.12592587     0.01880
C40         C  0.49049118  0.86908685  0.12589666     0.01880
C41         C  0.48802991  0.83952719  0.10194919     0.01880
C42         C  0.51636152  0.83658951  0.07683469     0.01880
C43         C  0.48713398  0.88151481  0.87011710     0.01880
C44         C  0.51975077  0.89950400  0.86627697     0.01880
C45         C  0.55009291  0.87743795  0.87079887     0.01880
C46         C  0.54828809  0.84985734  0.89704903     0.01880
C47         C  0.51585024  0.84505974  0.91675258     0.01880
C48         C  0.48454191  0.85441905  0.89675813     0.01880
C49         C  0.12646567  0.45217131  0.86483155     0.01880
C50         C  0.10437661  0.48226265  0.86728134     0.01880
C51         C  0.12608194  0.51343655  0.87304751     0.01880
C52         C  0.15272544  0.51191497  0.90059805     0.01880
C53         C  0.15535090  0.47905610  0.91850624     0.01880
C54         C  0.15182665  0.44943152  0.89459723     0.01880
C55         C  0.14868682  0.50633055  0.10465565     0.01880
C56         C  0.15251051  0.47642847  0.08140322     0.01880
C57         C  0.14946849  0.44386631  0.10074656     0.01880
C58         C  0.12306965  0.44166382  0.12842439     0.01880
C59         C  0.10352453  0.47257579  0.13686132     0.01880
C60         C  0.12543849  0.50377181  0.13528124     0.01880
C61         C  0.92165587  0.50813714  0.12359233     0.01880
C62         C  0.94059050  0.47650413  0.12904301     0.01880
C63         C  0.91880764  0.44486654  0.12450076     0.01880
C64         C  0.89104224  0.44559513  0.09769473     0.01880
C65         C  0.88894273  0.47651847  0.07632007     0.01880
C66         C  0.89611286  0.50901819  0.09514720     0.01880
C67         C  0.92139727  0.50742668  0.86866476     0.01880
C68         C  0.93965487  0.47496866  0.87103294     0.01880
C69         C  0.91397213  0.44584909  0.87251562     0.01880
C70         C  0.88326077  0.45016351  0.89548534     0.01880
C71         C  0.88351760  0.48174192  0.91580064     0.01880
C72         C  0.89255101  0.51117503  0.89403656     0.01880
O73         O  0.27307700  0.90988115  0.66099985    -0.75700
O74         O  0.24455069  0.95751183  0.64625070    -0.54610
C75         C  0.24834216  0.92517287  0.64335988     0.78030
O76         O  0.28394451  0.92530991  0.83113749    -0.60300
O77         O  0.33903128  0.94813061  0.82785976    -0.53330
C78         C  0.31544341  0.92875017  0.84170122     0.70040
O79         O  0.21180792  0.90239732  0.74424269    -0.74860
O80         O  0.19077268  0.94576141  0.71206804    -0.55420
C81         C  0.19061659  0.91432535  0.72217533     0.76050
O82         O  0.37176409  0.91744500  0.74147122    -0.60000
O83         O  0.38717873  0.96869938  0.76351988    -0.53120
C84         C  0.39114574  0.93616516  0.76233889     0.72640
Zr85       Zr  0.32146091  0.93502766  0.70166528     2.54710
O86         O  0.33596413  0.87454846  0.69046474    -0.80570
O87         O  0.36092610  0.94281920  0.65320319    -0.93990
Zr88       Zr  0.25175502  0.93476734  0.77910313     2.64680
O89         O  0.25268372  0.87301023  0.79327644    -0.98940
O90         O  0.20142187  0.93900364  0.81703988    -0.81000
O91         O  0.26223259  0.93243215  0.71897557    -0.84360
O92         O  0.31098775  0.93609831  0.76234332    -2.19070
O93         O  0.37040487  0.06643945  0.73497287    -0.67750
O94         O  0.37411852  0.03825304  0.78640432    -0.52310
C95         C  0.38444806  0.06139279  0.76513246     0.71020
O96         O  0.20234769  0.06075422  0.74199277    -0.60660
O97         O  0.18978338  0.02261297  0.69872411    -0.52630
C98         C  0.18547560  0.05106590  0.71495856     0.72820
O99         O  0.26911382  0.03356963  0.83722710    -0.72050
O100        O  0.32427503  0.01282599  0.84012329    -0.50730
C101        C  0.29641391  0.02445610  0.85404938     0.74210
O102        O  0.27755335  0.05894978  0.65131733    -0.67380
O103        O  0.23038128  0.02249961  0.65295459    -0.54580
C104        C  0.24751726  0.04742237  0.63926873     0.72590
Zr105      Zr  0.31839241  0.04295026  0.70135298     2.77540
O106        O  0.31788767  0.10592997  0.69496821    -0.98130
O107        O  0.36199007  0.04032877  0.65593335    -0.78950
Zr108      Zr  0.24810335  0.03887919  0.77875985     2.70070
O109        O  0.26017840  0.09967317  0.79282624    -0.80200
O110        O  0.19429520  0.04730002  0.81086509    -0.99280
Zr111      Zr  0.23854688  0.98551245  0.70015310     2.21500
Zr112      Zr  0.33286134  0.99118232  0.78271884     2.11130
O113        O  0.30729195  0.04355621  0.76209239    -2.47970
O114        O  0.25962361  0.03997657  0.71933021    -0.79990
O115        O  0.34417604  0.99028797  0.72221397    -0.72190
O116        O  0.22367437  0.98562638  0.75904500    -2.33140
O117        O  0.29738353  0.98798767  0.68034549    -2.29350
O118        O  0.27386387  0.98795038  0.79938918    -0.73950
H119        H  0.32133092  0.91637357  0.77343549     0.78050
H120        H  0.19874758  0.98495631  0.76290814     0.79140
H121        H  0.31662765  0.06423488  0.77307637     0.81360
H122        H  0.29893490  0.98830438  0.65554231     0.78970
H123        H  0.20868973  0.95621394  0.83477254     0.42010
H124        H  0.18886995  0.02421955  0.82084811     0.40980
H125        H  0.26585555  0.11058347  0.77046400     0.40650
H126        H  0.31666618  0.11503491  0.71881710     0.38590
H127        H  0.38403593  0.03497230  0.66805836     0.41720
H128        H  0.37042030  0.96673236  0.65601374     0.36500
H129        H  0.32118556  0.86120560  0.70674627     0.42620
H130        H  0.27770113  0.86682404  0.79403380     0.39040
H131        H  0.34172727  0.11214943  0.68709063     0.43960
H132        H  0.34535926  0.94409389  0.63288485     0.42680
H133        H  0.24464586  0.87142930  0.81743565     0.42810
H134        H  0.20113059  0.06210589  0.83073956     0.43170
O135        O  0.08676543  0.23962222  0.65067679    -0.75700
O136        O  0.03704982  0.21475629  0.63514469    -0.54610
C137        C  0.06940996  0.21717300  0.63148352     0.78030
O138        O  0.07987754  0.22820090  0.82335747    -0.60300
O139        O  0.04612715  0.27549947  0.83383311    -0.53330
C140        C  0.06737656  0.25205243  0.84280830     0.70040
O141        O  0.10111242  0.16762930  0.72460327    -0.74860
O142        O  0.06343792  0.15805979  0.68034874    -0.55420
C143        C  0.09174533  0.15269758  0.69641198     0.76050
O144        O  0.08479721  0.33301578  0.73545022    -0.60000
O145        O  0.05387185  0.33191180  0.78578227    -0.53120
C146        C  0.07745887  0.34474871  0.76628435     0.72640
Zr147      Zr  0.06345711  0.28427904  0.69542242     2.54710
O148        O  0.12069277  0.30541806  0.67737799    -0.80570
O149        O  0.04781611  0.32505373  0.65034963    -0.93990
Zr150      Zr  0.07801413  0.21005212  0.76404932     2.64680
O151        O  0.13842725  0.23054717  0.76593388    -0.98940
O152        O  0.09718274  0.15973277  0.79651229    -0.81000
O153        O  0.07097488  0.22446486  0.70570577    -0.84360
O154        O  0.07031591  0.26954995  0.75475171    -2.19070
O155        O  0.93612438  0.32223222  0.74600879    -0.67750
O156        O  0.97684295  0.33071538  0.78809001    -0.52310
C157        C  0.94804267  0.33828020  0.77342708     0.71020
O158        O  0.98032035  0.13607957  0.75227825    -0.60660
O159        O  0.99118400  0.14072516  0.69502055    -0.52630
C160        C  0.98047823  0.12419493  0.72158404     0.72820
O161        O  0.98092048  0.21248353  0.83247779    -0.72050
O162        O  0.98117199  0.27125921  0.83243713    -0.50730
C163        C  0.97346118  0.24178702  0.84589512     0.74210
O164        O  0.93519944  0.23647920  0.65589739    -0.67380
O165        O  0.97031046  0.18932060  0.65142828    -0.54580
C166        C  0.94456373  0.20717001  0.64171255     0.72590
Zr167      Zr  0.95644128  0.27336829  0.70634178     2.77540
O168        O  0.89290656  0.27022024  0.70836454    -0.98130
O169        O  0.95140568  0.31909714  0.66356981    -0.78950
Zr170      Zr  0.97487063  0.19449962  0.77306392     2.70070
O171        O  0.91349868  0.18663854  0.75741927    -0.80200
O172        O  0.95354130  0.15035120  0.81324133    -0.99280
Zr173      Zr  0.01715083  0.19782832  0.68961591     2.21500
Zr174      Zr  0.01582847  0.28303172  0.78177989     2.11130
O175        O  0.96321803  0.25494659  0.76429639    -2.47970
O176        O  0.96446889  0.21268128  0.71628308    -0.79990
O177        O  0.00991076  0.30155940  0.72367313    -0.72190
O178        O  0.02813029  0.17915758  0.74605533    -2.33140
O179        O  0.00916643  0.25828538  0.67726529    -2.29350
O180        O  0.02548384  0.22351741  0.79224536    -0.73950
H181        H  0.09029846  0.28026368  0.76582295     0.78050
H182        H  0.03546922  0.15525217  0.74722664     0.79140
H183        H  0.94367044  0.26256207  0.77786413     0.81360
H184        H  0.00530772  0.26297579  0.65317157     0.78970
H185        H  0.07533466  0.14930482  0.80564420     0.42010
H186        H  0.97437493  0.14331776  0.82652891     0.40980
H187        H  0.90639677  0.20821454  0.74563452     0.40650
H188        H  0.88709550  0.27084322  0.73318313     0.38590
H189        H  0.95656781  0.34087457  0.67642444     0.41720
H190        H  0.02343551  0.33154769  0.65551918     0.36500
H191        H  0.13736540  0.29080240  0.69018155     0.42620
H192        H  0.14309042  0.23911907  0.74237251     0.39040
H193        H  0.88517483  0.29297975  0.69949143     0.43960
H194        H  0.04611802  0.31063580  0.62920477     0.42680
H195        H  0.15232984  0.20906732  0.76774330     0.42810
H196        H  0.93836220  0.16197937  0.83022105     0.43170
O197        O  0.09974923  0.72102237  0.34356022    -0.75700
O198        O  0.06521376  0.76872379  0.34248445    -0.54610
C199        C  0.09007672  0.75126033  0.35560954     0.78030
O200        O  0.06401864  0.73668602  0.15949565    -0.60300
O201        O  0.04615451  0.68010054  0.15817535    -0.53330
C202        C  0.05933115  0.70738805  0.14433160     0.70040
O203        O  0.07717965  0.80920299  0.24760067    -0.74860
O204        O  0.05393281  0.81232308  0.30133390    -0.55420
C205        C  0.07305969  0.82369206  0.27718933     0.76050
O206        O  0.10020730  0.63039133  0.25756116    -0.60000
O207        O  0.06725732  0.62744227  0.20881447    -0.53120
C208        C  0.09171731  0.61663852  0.22782197     0.72640
Zr209      Zr  0.07969296  0.68175075  0.29367901     2.54710
O210        O  0.14319249  0.68101000  0.29626896    -0.80570
O211        O  0.07909057  0.63764389  0.33843475    -0.93990
Zr212      Zr  0.07165874  0.75361763  0.21855485     2.64680
O213        O  0.13379913  0.74167422  0.21224426    -0.98940
O214        O  0.09206919  0.80099835  0.18206862    -0.81000
O215        O  0.07673717  0.74126934  0.27773881    -0.84360
O216        O  0.07768861  0.69457198  0.23358696    -2.19070
O217        O  0.95198258  0.62622732  0.25432635    -0.67750
O218        O  0.00230100  0.61393402  0.22908592    -0.52310
C219        C  0.96989574  0.60870568  0.23145612     0.71020
O220        O  0.95142775  0.80144356  0.24153476    -0.60660
O221        O  0.98539703  0.80832598  0.28893434    -0.52630
C222        C  0.96199726  0.81802437  0.26801918     0.72820
O223        O  0.95059684  0.71081120  0.17090932    -0.72050
O224        O  0.98205195  0.66109391  0.17050142    -0.50730
C225        C  0.95829369  0.68063394  0.15909547     0.74210
O226        O  0.94619432  0.72214689  0.33845157    -0.67380
O227        O  0.99269436  0.75526067  0.35165653    -0.54580
C228        C  0.96088874  0.74776312  0.35592668     0.72590
Zr229      Zr  0.97078453  0.67600899  0.29626113     2.77540
O230        O  0.91102783  0.65919693  0.31045861    -0.98130
O231        O  0.98154723  0.63527516  0.34271603    -0.78950
Zr232      Zr  0.96712841  0.74629865  0.21994059     2.70070
O233        O  0.90375996  0.74433534  0.22465185    -0.80200
O234        O  0.96416392  0.78558767  0.17105995    -0.99280
Zr235      Zr  0.02226989  0.75963096  0.29886590     2.21500
Zr236      Zr  0.02395117  0.66971805  0.21476867     2.11130
O237        O  0.96894598  0.68781182  0.23633514    -2.47970
O238        O  0.96782563  0.73576431  0.28044148    -0.79990
O239        O  0.02574487  0.65572851  0.27426543    -0.72190
O240        O  0.01880080  0.77416497  0.23998616    -2.33140
O241        O  0.02497740  0.70078991  0.31723450    -2.29350
O242        O  0.02008577  0.72766283  0.19709929    -0.73950
H243        H  0.09745639  0.68528457  0.22138705     0.78050
H244        H  0.01748951  0.79869839  0.23507078     0.79140
H245        H  0.94880246  0.67707331  0.22570378     0.81360
H246        H  0.02588822  0.69937136  0.34203751     0.78970
H247        H  0.07044324  0.81128242  0.17276014     0.42010
H248        H  0.98067633  0.77589552  0.15403055     0.40980
H249        H  0.89908264  0.72767445  0.24349365     0.40650
H250        H  0.89763117  0.66353487  0.28911425     0.38590
H251        H  0.98617796  0.61294199  0.33084767     0.41720
H252        H  0.05548867  0.63897419  0.34868250     0.36500
H253        H  0.15070051  0.69958576  0.28023349     0.42620
H254        H  0.13534769  0.72745878  0.19097985     0.39040
H255        H  0.91144101  0.63353116  0.31247311     0.43960
H256        H  0.09488551  0.64707767  0.35649047     0.42680
H257        H  0.14471327  0.76421855  0.20591490     0.42810
H258        H  0.94076230  0.78130815  0.16089862     0.43170
O259        O  0.25334990  0.82427047  0.05368076    -0.75700
O260        O  0.31054682  0.82523279  0.03836455    -0.54610
C261        C  0.28355157  0.83842992  0.05274665     0.78030
O262        O  0.26135515  0.64131481  0.07499693    -0.60300
O263        O  0.22266518  0.63219496  0.03166956    -0.53330
C264        C  0.23414575  0.62540596  0.06119141     0.70040
O265        O  0.35938117  0.72231990  0.07675267    -0.74860
O266        O  0.36527036  0.77153536  0.04434908    -0.55420
C267        C  0.37545731  0.75112455  0.06832828     0.76050
O268        O  0.17356117  0.75097170  0.03781649    -0.60000
O269        O  0.17784904  0.69315107  0.03518589    -0.53120
C270        C  0.16209466  0.72078551  0.04457434     0.72640
Zr271      Zr  0.23293806  0.76533759  0.04893586     2.54710
O272        O  0.23106954  0.74996969  0.10974482    -0.80570
O273        O  0.19008834  0.80190421  0.07774865    -0.93990
Zr274      Zr  0.30543083  0.68916223  0.05729559     2.64680
O275        O  0.31014174  0.68472002  0.11960219    -0.98940
O276        O  0.34535907  0.64043603  0.05378966    -0.81000
O277        O  0.29233898  0.75042791  0.05675484    -0.84360
O278        O  0.24636317  0.70548044  0.05297737    -2.19070
O279        O  0.18117174  0.72978184  0.93916243    -0.67750
O280        O  0.17638840  0.67874492  0.96806747    -0.52310
C281        C  0.16514646  0.70150277  0.94755039     0.71020
O282        O  0.35380963  0.73924635  0.93139257    -0.60660
O283        O  0.37139853  0.76809674  0.97867532    -0.52630
C284        C  0.37242709  0.76383954  0.94651988     0.72820
O285        O  0.28232628  0.63260041  0.93653343    -0.72050
O286        O  0.23087405  0.63135250  0.96583222    -0.50730
C287        C  0.25273572  0.61778719  0.94518133     0.74210
O288        O  0.27325695  0.79902921  0.91748007    -0.67380
O289        O  0.31238794  0.81410336  0.95902460    -0.54580
C290        C  0.29784977  0.81780532  0.92964156     0.72590
Zr291      Zr  0.23729013  0.75874514  0.94652816     2.77540
O292        O  0.22813215  0.75112733  0.88482378    -0.98130
O293        O  0.20048705  0.80986739  0.94405607    -0.78950
Zr294      Zr  0.31413645  0.68902646  0.95236395     2.70070
O295        O  0.32465710  0.67639294  0.89184093    -0.80200
O296        O  0.36678873  0.65538507  0.96155419    -0.99280
Zr297      Zr  0.31665777  0.77200605  0.00512405     2.21500
Zr298      Zr  0.22826375  0.68225859  0.99962667     2.11130
O299        O  0.25299016  0.69989391  0.94676653    -2.47970
O300        O  0.29789995  0.74779235  0.95175829    -0.79990
O301        O  0.21109912  0.74034200  0.99725153    -0.72190
O302        O  0.33258861  0.71201133  0.00665028    -2.33140
O303        O  0.25747320  0.78731781  0.99763727    -2.29350
O304        O  0.28761438  0.66554458  0.00331037    -0.73950
H305        H  0.23339106  0.69592452  0.07176474     0.78050
H306        H  0.35760872  0.70965056  0.00853250     0.79140
H307        H  0.24274372  0.68777200  0.92732407     0.81360
H308        H  0.25435446  0.81197339  0.99441649     0.78970
H309        H  0.36787639  0.65101564  0.04658035     0.42010
H310        H  0.35872072  0.63484629  0.97475755     0.40980
H311        H  0.30551037  0.68827157  0.87960746     0.40650
H312        H  0.22088333  0.72648913  0.88173994     0.38590
H313        H  0.18591650  0.80836743  0.96504398     0.41720
H314        H  0.18471833  0.82057360  0.06114707     0.36500
H315        H  0.25455781  0.74096010  0.11513257     0.42620
H316        H  0.28569097  0.68402534  0.12785576     0.39040
H317        H  0.20682502  0.76453268  0.87972156     0.43960
H318        H  0.20250185  0.81384456  0.09686648     0.42680
H319        H  0.31882662  0.66090493  0.12358600     0.42810
H320        H  0.37264476  0.64598773  0.93853092     0.43170
O321        O  0.07588678  0.13745834  0.25283168    -0.75700
O322        O  0.04402196  0.13604085  0.30202842    -0.54610
C323        C  0.06469601  0.12256119  0.28007930     0.78030
O324        O  0.09566685  0.31707519  0.25309580    -0.60300
O325        O  0.04723206  0.32937203  0.22457558    -0.53330
C326        C  0.07964328  0.33342098  0.22838883     0.70040
O327        O  0.08768180  0.23953706  0.35075539    -0.74860
O328        O  0.05364370  0.19097090  0.34982409    -0.55420
C329        C  0.07685729  0.21014813  0.36390130     0.76050
O330        O  0.07270262  0.20801900  0.16748253    -0.60000
O331        O  0.06253870  0.26547780  0.17008589    -0.53120
C332        C  0.07506958  0.23869415  0.15561930     0.72640
Zr333      Zr  0.07206726  0.19414431  0.22722650     2.54710
O334        O  0.13306510  0.20893854  0.23853744    -0.80570
O335        O  0.10483170  0.15474825  0.19029867    -0.93990
Zr336      Zr  0.07104111  0.27295492  0.29681014     2.64680
O337        O  0.13288397  0.28089640  0.30971734    -0.98940
O338        O  0.06219538  0.32297352  0.33432413    -0.81000
O339        O  0.07136400  0.21143157  0.28577887    -0.84360
O340        O  0.07318374  0.25467591  0.23811729    -2.19070
O341        O  0.94847221  0.23088070  0.17231706    -0.67750
O342        O  0.98488395  0.27712936  0.16404005    -0.52310
C343        C  0.95770493  0.25903157  0.15704197     0.71020
O344        O  0.93754431  0.23192847  0.33970400    -0.60660
O345        O  0.97438010  0.18676434  0.34809938    -0.52630
C346        C  0.94656619  0.20312217  0.35512505     0.72820
O347        O  0.94540317  0.32294795  0.25398345    -0.72050
O348        O  0.97921835  0.31973846  0.20598095    -0.50730
C349        C  0.95522902  0.33417406  0.22358648     0.74210
O350        O  0.94895833  0.14680332  0.25274367    -0.67380
O351        O  0.97743087  0.14342379  0.30411527    -0.54580
C352        C  0.95464147  0.13367849  0.28233560     0.72590
Zr353      Zr  0.96841641  0.19506963  0.21929078     2.77540
O354        O  0.90904739  0.17731546  0.20412709    -0.98130
O355        O  0.98417709  0.15392542  0.17422758    -0.78950
Zr356      Zr  0.96310307  0.27198638  0.29323817     2.70070
O357        O  0.90062971  0.28228573  0.29701930    -0.80200
O358        O  0.97014045  0.31467392  0.33928646    -0.99280
Zr359      Zr  0.01556536  0.19109098  0.30275711     2.21500
Zr360      Zr  0.01997087  0.27494265  0.21449023     2.11130
O361        O  0.96580684  0.25418087  0.23498037    -2.47970
O362        O  0.96325570  0.21183052  0.27825137    -0.79990
O363        O  0.02186399  0.21589907  0.19860028    -0.72190
O364        O  0.01594522  0.25097182  0.31876420    -2.33140
O365        O  0.01790674  0.17123000  0.24528632    -2.29350
O366        O  0.01788949  0.29451782  0.27253831    -0.73950
H367        H  0.09350507  0.26357136  0.22649114     0.78050
H368        H  0.01497778  0.25345341  0.34350362     0.79140
H369        H  0.94618420  0.26466543  0.22389332     0.81360
H370        H  0.01567964  0.14636116  0.24234074     0.78970
H371        H  0.05400734  0.31281381  0.35628962     0.42010
H372        H  0.98000575  0.33550786  0.32778226     0.40980
H373        H  0.89029864  0.26706992  0.27895408     0.40650
H374        H  0.89476540  0.19827505  0.20789380     0.38590
H375        H  0.98500129  0.16798227  0.15294760     0.41720
H376        H  0.08867424  0.13499475  0.18549488     0.36500
H377        H  0.13984542  0.19337197  0.25758799     0.42620
H378        H  0.14494006  0.27461913  0.28806824     0.39040
H379        H  0.90925352  0.17392249  0.17885183     0.43960
H380        H  0.12331338  0.14490016  0.20507362     0.42680
H381        H  0.13625329  0.30640117  0.31187128     0.42810
H382        H  0.94599265  0.32125181  0.34538283     0.43170
O383        O  0.18637917  0.93090064  0.23716878    -0.75700
O384        O  0.18693053  0.94175276  0.29458515    -0.54610
C385        C  0.17349995  0.92847633  0.26727703     0.78030
O386        O  0.36605911  0.90799152  0.24844471    -0.60300
O387        O  0.37829600  0.95290658  0.21235840    -0.53330
C388        C  0.38274756  0.92166179  0.22184246     0.70040
O389        O  0.27754848  0.90428391  0.34134684    -0.74860
O390        O  0.23645239  0.94518573  0.35235948    -0.55420
C391        C  0.25071873  0.91620385  0.35877918     0.76050
O392        O  0.26108489  0.95534375  0.16141250    -0.60000
O393        O  0.31863415  0.95508825  0.16829515    -0.53120
C394        C  0.29123778  0.94734615  0.15110502     0.72640
Zr395      Zr  0.24560821  0.93830046  0.21822740     2.54710
O396        O  0.26373172  0.87771417  0.21883415    -0.80570
O397        O  0.21360670  0.91097419  0.17043353    -0.93990
Zr398      Zr  0.31855880  0.92684536  0.29313060     2.64680
O399        O  0.32533527  0.86412347  0.29794726    -0.98940
O400        O  0.36496753  0.93013303  0.33593861    -0.81000
O401        O  0.25790273  0.92834757  0.27718613    -0.84360
O402        O  0.30477250  0.93547192  0.23442559    -2.19070
O403        O  0.27153151  0.04763549  0.17458700    -0.67750
O404        O  0.32800096  0.03004035  0.17370749    -0.52310
C405        C  0.30188457  0.04590536  0.16111482     0.71020
O406        O  0.28059335  0.04310610  0.35848907    -0.60660
O407        O  0.22750735  0.02641095  0.33970166    -0.52630
C408        C  0.24674024  0.03908302  0.36299828     0.72820
O409        O  0.37218558  0.05798631  0.26836340    -0.72050
O410        O  0.38358595  0.01987850  0.22479497    -0.50730
C411        C  0.38995304  0.04812264  0.24098409     0.74210
O412        O  0.19045780  0.04728486  0.25415761    -0.67380
O413        O  0.18210562  0.00908554  0.29817040    -0.54580
C414        C  0.17215658  0.03309005  0.27794199     0.72590
Zr415      Zr  0.24899266  0.04205996  0.23189172     2.77540
O416        O  0.26038629  0.10108400  0.25288159    -0.98130
O417        O  0.21068042  0.07342420  0.19308286    -0.78950
Zr418      Zr  0.32144184  0.03318037  0.30600755     2.70070
O419        O  0.32689559  0.09428045  0.32216653    -0.80200
O420        O  0.36688196  0.02275225  0.34845639    -0.99280
Zr421      Zr  0.23644922  0.97987589  0.30217920     2.21500
Zr422      Zr  0.32960994  0.98953190  0.21959696     2.11130
O423        O  0.30890885  0.04103005  0.24629417    -2.47970
O424        O  0.26124187  0.03523456  0.29060931    -0.79990
O425        O  0.27059456  0.99277691  0.20294733    -0.72190
O426        O  0.29598972  0.97766796  0.32114516    -2.33140
O427        O  0.22222415  0.98789828  0.24392387    -2.29350
O428        O  0.34430979  0.98211014  0.27872156    -0.73950
H429        H  0.31442555  0.91760393  0.22085528     0.78050
H430        H  0.29728258  0.97493094  0.34581027     0.79140
H431        H  0.31971859  0.06155437  0.23668973     0.81360
H432        H  0.19791280  0.98901328  0.23778980     0.78970
H433        H  0.35257786  0.93267788  0.35814434     0.42010
H434        H  0.38549715  0.01084310  0.33541770     0.40980
H435        H  0.30364919  0.10407938  0.31710786     0.40650
H436        H  0.28277835  0.10871062  0.24257543     0.38590
H437        H  0.19698150  0.05499093  0.18109893     0.41720
H438        H  0.19010869  0.90451549  0.17898893     0.36500
H439        H  0.27119191  0.87284958  0.24271266     0.42620
H440        H  0.32524211  0.85540102  0.27392975     0.39040
H441        H  0.24246412  0.11560941  0.24175685     0.43960
H442        H  0.22516198  0.88850370  0.16592965     0.42680
H443        H  0.34971525  0.86112319  0.30583409     0.42810
H444        H  0.37677349  0.04613221  0.35358608     0.43170
O445        O  0.36502253  0.23189649  0.06597586    -0.75700
O446        O  0.36443225  0.18726775  0.02909540    -0.54610
C447        C  0.37796128  0.20270598  0.05431618     0.78030
O448        O  0.18552861  0.20905704  0.05315216    -0.60300
O449        O  0.18244098  0.26194625  0.02794261    -0.53330
C450        C  0.17160452  0.23841328  0.04864673     0.70040
O451        O  0.27533360  0.13885383  0.05110345    -0.74860
O452        O  0.32859676  0.14037168  0.02524442    -0.55420
C453        C  0.30669420  0.12869898  0.04695022     0.76050
O454        O  0.26690696  0.31404871  0.06430024    -0.60000
O455        O  0.22151529  0.31568007  0.02665644    -0.53120
C456        C  0.23665354  0.32636708  0.05374464     0.72640
Zr457      Zr  0.31214327  0.26760905  0.04506368     2.54710
O458        O  0.31671132  0.27365347  0.10729498    -0.80570
O459        O  0.35377327  0.31576136  0.04089996    -0.93990
Zr460      Zr  0.24042808  0.18770212  0.03711988     2.64680
O461        O  0.23264988  0.18588345  0.09928500    -0.98940
O462        O  0.19964615  0.13864019  0.03339216    -0.81000
O463        O  0.29912819  0.20682255  0.04179981    -0.84360
O464        O  0.25344754  0.24739655  0.04217123    -2.19070
O465        O  0.27080123  0.31973832  0.92169862    -0.67750
O466        O  0.23841902  0.32678490  0.96912122    -0.52310
C467        C  0.24599203  0.33554260  0.93869133     0.71020
O468        O  0.27012276  0.13430722  0.92990506    -0.60660
O469        O  0.31820237  0.13163443  0.96368140    -0.52630
C470        C  0.29502640  0.11769272  0.94443465     0.72820
O471        O  0.18671626  0.21088301  0.92608808    -0.72050
O472        O  0.18270859  0.26260654  0.95390230    -0.50730
C473        C  0.17097042  0.23858594  0.93440419     0.74210
O474        O  0.36304918  0.23304420  0.91507579    -0.67380
O475        O  0.36802003  0.18661352  0.95063337    -0.54580
C476        C  0.37758980  0.20396368  0.92471486     0.72590
Zr477      Zr  0.31407875  0.27152178  0.93840435     2.77540
O478        O  0.32549708  0.28802469  0.87901959    -0.98130
O479        O  0.35815988  0.31621620  0.95008188    -0.78950
Zr480      Zr  0.24501111  0.19182905  0.93313008     2.70070
O481        O  0.25863776  0.20245747  0.87286319    -0.80200
O482        O  0.20767676  0.14791502  0.90561293    -0.99280
Zr483      Zr  0.32091026  0.18829576  0.98824372     2.21500
Zr484      Zr  0.23191014  0.26911718  0.99010002     2.11130
O485        O  0.25436739  0.25305554  0.93540911    -2.47970
O486        O  0.30388839  0.21007947  0.93415887    -0.79990
O487        O  0.29024281  0.29048060  0.99220337    -0.72190
O488        O  0.26307293  0.16790400  0.98582856    -2.33140
O489        O  0.33713094  0.24831967  0.99127879    -2.29350
O490        O  0.21747734  0.20975112  0.98524983    -0.73950
H491        H  0.24090611  0.25599235  0.06167912     0.78050
H492        H  0.25882987  0.14328897  0.98805609     0.79140
H493        H  0.24187849  0.26376635  0.91672924     0.81360
H494        H  0.36226511  0.25091612  0.99179029     0.78970
H495        H  0.21398403  0.11823614  0.02737688     0.42010
H496        H  0.18810541  0.14388153  0.92179950     0.40980
H497        H  0.24510389  0.22333543  0.86674484     0.40650
H498        H  0.30287668  0.28437846  0.86706530     0.38590
H499        H  0.34456572  0.33708075  0.95630909     0.41720
H500        H  0.37639681  0.30453035  0.03604526     0.36500
H501        H  0.29732986  0.25905437  0.11629290     0.42620
H502        H  0.24997358  0.20279002  0.10858298     0.39040
H503        H  0.32881342  0.31361143  0.87975187     0.43960
H504        H  0.35612137  0.32460737  0.06477905     0.42680
H505        H  0.24115811  0.16279266  0.10639677     0.42810
H506        H  0.19702797  0.15937008  0.88545132     0.43170
O507        O  0.84799872  0.03905409  0.26321710    -0.75700
O508        O  0.84550114  0.01123529  0.31459297    -0.54610
C509        C  0.85797517  0.03346260  0.29419042     0.78030
O510        O  0.67177095  0.05078015  0.25605452    -0.60300
O511        O  0.66941866  0.01774427  0.20742734    -0.53330
C512        C  0.65917380  0.04318313  0.22535842     0.70040
O513        O  0.75866576  0.04601967  0.34691611    -0.74860
O514        O  0.79624449  0.00154542  0.35437779    -0.55420
C515        C  0.78371927  0.03078673  0.36362070     0.76050
O516        O  0.77763250  0.04272089  0.17186780    -0.60000
O517        O  0.72362723  0.01745545  0.16784720    -0.53120
C518        C  0.74811352  0.03797719  0.15772442     0.72640
Zr519      Zr  0.79761946  0.02952338  0.22724780     2.54710
O520        O  0.79144797  0.09243511  0.23005899    -0.80570
O521        O  0.84735101  0.04201152  0.19000535    -0.93990
Zr522      Zr  0.71909976  0.02781066  0.29746528     2.64680
O523        O  0.71075459  0.08905247  0.31108071    -0.98940
O524        O  0.67289223  0.01825155  0.33942947    -0.81000
O525        O  0.78008336  0.02786596  0.28486572    -0.84360
O526        O  0.73719875  0.03102185  0.23949753    -2.19070
O527        O  0.76029486  0.90566093  0.17319158    -0.67750
O528        O  0.71299290  0.94009192  0.16885661    -0.52310
C529        C  0.73079907  0.91400724  0.16063701     0.71020
O530        O  0.75676460  0.90749857  0.34826522    -0.60660
O531        O  0.80937500  0.92010436  0.32836478    -0.52630
C532        C  0.79079653  0.90941873  0.35249463     0.72820
O533        O  0.67289235  0.89983438  0.24885246    -0.72050
O534        O  0.65960498  0.94959667  0.22307695    -0.50730
C535        C  0.65627077  0.91674160  0.22471601     0.74210
O536        O  0.84368859  0.90524931  0.25087617    -0.67380
O537        O  0.85625796  0.94584715  0.29149377    -0.54580
C538        C  0.86276499  0.91821549  0.27461474     0.72590
Zr539      Zr  0.79516300  0.92624487  0.21968441     2.77540
O540        O  0.80728127  0.86472072  0.21082813    -0.98130
O541        O  0.83690678  0.93663484  0.17352168    -0.78950
Zr542      Zr  0.71853289  0.92054754  0.29419110     2.70070
O543        O  0.71534290  0.85770970  0.30124437    -0.80200
O544        O  0.66864251  0.92215196  0.33287829    -0.99280
Zr545      Zr  0.80064438  0.97270927  0.30088012     2.21500
Zr546      Zr  0.71488867  0.97877991  0.21568702     2.11130
O547        O  0.73592209  0.92476151  0.23562925    -2.47970
O548        O  0.77859907  0.92007108  0.27834479    -0.79990
O549        O  0.77411052  0.97952175  0.19898439    -0.72190
O550        O  0.74097209  0.97330954  0.31875373    -2.33140
O551        O  0.82055528  0.97661997  0.24389464    -2.29350
O552        O  0.69580297  0.97510948  0.27379015    -0.73950
H553        H  0.72814746  0.05139683  0.22850204     0.78050
H554        H  0.73857862  0.97244548  0.34347936     0.79140
H555        H  0.72614347  0.90484386  0.22420356     0.81360
H556        H  0.84554004  0.97719909  0.24052613     0.78970
H557        H  0.68529087  0.01667736  0.36173987     0.42010
H558        H  0.65451679  0.94183535  0.32457480     0.40980
H559        H  0.73117115  0.84853539  0.28331438     0.40650
H560        H  0.78518052  0.85249192  0.21660179     0.38590
H561        H  0.84022045  0.96221464  0.17301382     0.41720
H562        H  0.86470931  0.02399536  0.19560122     0.36500
H563        H  0.80373617  0.10132420  0.20944153     0.42620
H564        H  0.71658782  0.10139653  0.28949142     0.39040
H565        H  0.80987797  0.86166477  0.18564780     0.43960
H566        H  0.85769406  0.06394545  0.19909681     0.42680
H567        H  0.68517080  0.09157849  0.31353701     0.42810
H568        H  0.65468558  0.90117429  0.32670218     0.43170
O569        O  0.76221195  0.14882897  0.06074711    -0.75700
O570        O  0.70929252  0.14441297  0.03401861    -0.54610
C571        C  0.73269571  0.13418684  0.05495286     0.78030
O572        O  0.76099543  0.32343466  0.06248068    -0.60300
O573        O  0.79340624  0.33479629  0.01570282    -0.53330
C574        C  0.78636092  0.34059773  0.04693940     0.70040
O575        O  0.67220752  0.22799487  0.06429195    -0.74860
O576        O  0.65544723  0.20170696  0.01572493    -0.55420
C577        C  0.65249562  0.20504357  0.04781830     0.76050
O578        O  0.84183396  0.23415261  0.06527825    -0.60000
O579        O  0.84855281  0.28286973  0.03304077    -0.53120
C580        C  0.85664767  0.26327054  0.05797265     0.72640
Zr581      Zr  0.79149036  0.20145130  0.04573478     2.54710
O582        O  0.78690042  0.20075316  0.10819601    -0.80570
O583        O  0.83881515  0.15979333  0.04891074    -0.93990
Zr584      Zr  0.71775922  0.27416895  0.04298182     2.64680
O585        O  0.70391302  0.28876477  0.10241785    -0.98940
O586        O  0.67193315  0.31596430  0.03166298    -0.81000
O587        O  0.73090174  0.21381322  0.04492239    -0.84360
O588        O  0.77824609  0.26069582  0.04468957    -2.19070
O589        O  0.85353907  0.21155968  0.95052629    -0.67750
O590        O  0.85592917  0.26984081  0.95941229    -0.52310
C591        C  0.86860595  0.24125389  0.94817006     0.71020
O592        O  0.67603913  0.23152909  0.91193111    -0.60660
O593        O  0.66845713  0.18517346  0.94780483    -0.52630
C594        C  0.66137860  0.20215164  0.92062417     0.72820
O595        O  0.75896928  0.32400855  0.92132442    -0.72050
O596        O  0.80970168  0.32514918  0.95224904    -0.50730
C597        C  0.78927257  0.33754289  0.92972823     0.74210
O598        O  0.77076707  0.13712367  0.94103184    -0.67380
O599        O  0.71870691  0.13109285  0.96801434    -0.54580
C600        C  0.74505789  0.11858249  0.95179638     0.72590
Zr601      Zr  0.79281992  0.19601395  0.94253365     2.77540
O602        O  0.77433458  0.19877884  0.88234690    -0.98130
O603        O  0.83698789  0.16318960  0.91138632    -0.78950
Zr604      Zr  0.72181461  0.27146683  0.93760719     2.70070
O605        O  0.71838008  0.28127337  0.87582567    -0.80200
O606        O  0.67388432  0.31215363  0.94300261    -0.99280
Zr607      Zr  0.71082255  0.18957694  0.99172394     2.21500
Zr608      Zr  0.80288583  0.27924649  0.99151171     2.11130
O609        O  0.78162986  0.25638555  0.93881908    -2.47970
O610        O  0.73359647  0.21061385  0.93920254    -0.79990
O611        O  0.81688567  0.22004204  0.99385624    -0.72190
O612        O  0.69630267  0.25030974  0.98972661    -2.33140
O613        O  0.77057167  0.17490349  0.99507383    -2.29350
O614        O  0.74298734  0.29553383  0.99040978    -0.73950
H615        H  0.78901852  0.27103809  0.06468741     0.78050
H616        H  0.67147371  0.25411562  0.98800433     0.79140
H617        H  0.79345522  0.26686809  0.91967867     0.81360
H618        H  0.77531616  0.15066421  0.99881063     0.78970
H619        H  0.64994871  0.30281974  0.03579734     0.42010
H620        H  0.68454979  0.33299473  0.95404119     0.40980
H621        H  0.74281092  0.28003365  0.86764249     0.40650
H622        H  0.77054046  0.22359275  0.87711016     0.38590
H623        H  0.82407420  0.14465712  0.89875007     0.41720
H624        H  0.83172738  0.14067342  0.03311703     0.36500
H625        H  0.76592322  0.21470196  0.11325743     0.42620
H626        H  0.72576095  0.28430524  0.11525408     0.39040
H627        H  0.79438248  0.19171970  0.86800704     0.43960
H628        H  0.83676795  0.14962427  0.07219628     0.42680
H629        H  0.70167224  0.31440744  0.10268075     0.42810
H630        H  0.66898121  0.31946371  0.91909769     0.43170
O631        O  0.10846634  0.80342922  0.71820876    -0.75700
O632        O  0.07022237  0.80636598  0.67380863    -0.54610
C633        C  0.09760715  0.81607373  0.68982333     0.78030
O634        O  0.10254705  0.63549760  0.74408544    -0.60300
O635        O  0.05752336  0.62767129  0.78041648    -0.53330
C636        C  0.08857261  0.62130091  0.77180331     0.70040
O637        O  0.09913596  0.72202917  0.64824317    -0.74860
O638        O  0.04771027  0.74138758  0.63126354    -0.55420
C639        C  0.08024981  0.74148335  0.62772392     0.76050
O640        O  0.10691713  0.74776439  0.81490689    -0.60000
O641        O  0.07246581  0.70060849  0.82540092    -0.53120
C642        C  0.09609259  0.72280210  0.83329995     0.72640
Zr643      Zr  0.08932079  0.76058935  0.75863909     2.54710
O644        O  0.15157597  0.74892797  0.75521508    -0.80570
O645        O  0.09907238  0.81453602  0.79073045    -0.93990
Zr646      Zr  0.08051770  0.67864783  0.69680363     2.64680
O647        O  0.13920740  0.66178348  0.68005568    -0.98940
O648        O  0.06750561  0.63191499  0.65609734    -0.81000
O649        O  0.08354995  0.74030324  0.70185990    -0.84360
O650        O  0.08608870  0.69924233  0.75455985    -2.19070
O651        O  0.97316992  0.74248676  0.82525599    -0.67750
O652        O  0.99853139  0.68991073  0.83327813    -0.52310
C653        C  0.97823682  0.71456411  0.84214318     0.71020
O654        O  0.94803962  0.71692229  0.65496433    -0.60660
O655        O  0.97891063  0.76750716  0.65040985    -0.52630
C656        C  0.95452051  0.74726451  0.64111256     0.72820
O657        O  0.95827042  0.63375290  0.74759245    -0.72050
O658        O  0.99472197  0.63528678  0.79409927    -0.50730
C659        C  0.96905208  0.62208365  0.77736661     0.74210
O660        O  0.97653136  0.81860136  0.74025735    -0.67380
O661        O  0.00373718  0.81921446  0.68839379    -0.54580
C662        C  0.98574689  0.83344019  0.71228479     0.72590
Zr663      Zr  0.98510981  0.76501790  0.76930528     2.77540
O664        O  0.92178519  0.76982282  0.76707892    -0.98130
O665        O  0.98476236  0.81080374  0.81277516    -0.78950
Zr666      Zr  0.97288180  0.68229822  0.70505224     2.70070
O667        O  0.90971243  0.67498415  0.70784963    -0.80200
O668        O  0.97264480  0.63544764  0.66265678    -0.99280
Zr669      Zr  0.02799693  0.76152331  0.68519754     2.21500
Zr670      Zr  0.03224988  0.68332903  0.78150158     2.11130
O671        O  0.97864760  0.70437451  0.76162681    -2.47970
O672        O  0.97592780  0.74390090  0.71285333    -0.79990
O673        O  0.03839402  0.74375513  0.78997280    -0.72190
O674        O  0.02508805  0.69943718  0.67617459    -2.33140
O675        O  0.03630965  0.78395932  0.74101058    -2.29350
O676        O  0.02756685  0.66035601  0.72478997    -0.73950
H677        H  0.10637604  0.69081608  0.76650828     0.78050
H678        H  0.02178434  0.69210985  0.65256935     0.79140
H679        H  0.95971140  0.69553540  0.77524239     0.81360
H680        H  0.03954878  0.80887182  0.74185971     0.78970
H681        H  0.07013695  0.64288943  0.63322981     0.42010
H682        H  0.99020814  0.61889491  0.67127888     0.40980
H683        H  0.90092353  0.69864824  0.71261375     0.40650
H684        H  0.91348125  0.74718424  0.75774268     0.38590
H685        H  0.00978580  0.81572747  0.81738460     0.41720
H686        H  0.08587049  0.83251433  0.77821537     0.36500
H687        H  0.15517246  0.74079390  0.73127379     0.42620
H688        H  0.15427344  0.67020314  0.69916604     0.39040
H689        H  0.91427733  0.76980691  0.79144904     0.43960
H690        H  0.12392395  0.82060880  0.78663452     0.42680
H691        H  0.13929957  0.63611543  0.68213434     0.42810
H692        H  0.94995433  0.62334249  0.66609673     0.43170
O693        O  0.78161654  0.04647840  0.66642112    -0.75700
O694        O  0.82194989  0.00423933  0.65905192    -0.54610
C695        C  0.80884131  0.03339135  0.65084569     0.78030
O696        O  0.78416601  0.01780293  0.84924884    -0.60300
O697        O  0.72829093  0.99847845  0.85023835    -0.53330
C698        C  0.75549272  0.01158230  0.86503747     0.70040
O699        O  0.86379353  0.02976240  0.76982964    -0.74860
O700        O  0.86957380  0.00108044  0.71881329    -0.55420
C701        C  0.87997860  0.02223209  0.74226473     0.76050
O702        O  0.68372010  0.04696120  0.74391061    -0.60000
O703        O  0.68036725  0.01749118  0.79467487    -0.53120
C704        C  0.66875044  0.03963742  0.77313871     0.72640
Zr705      Zr  0.73879082  0.02809006  0.71356474     2.54710
O706        O  0.73824558  0.09143882  0.71360773    -0.80570
O707        O  0.69832543  0.02868127  0.66514233    -0.93990
Zr708      Zr  0.80709846  0.01769557  0.79170167     2.64680
O709        O  0.79781953  0.08029687  0.79532415    -0.98940
O710        O  0.85558663  0.02911841  0.83084538    -0.81000
O711        O  0.79784915  0.02327960  0.73171580    -0.84360
O712        O  0.74891898  0.02518274  0.77445232    -2.19070
O713        O  0.67847808  0.89928950  0.74697808    -0.67750
O714        O  0.66842052  0.94940490  0.77223363    -0.52310
C715        C  0.66181370  0.91726906  0.77009108     0.71020
O716        O  0.85495909  0.89632633  0.75825496    -0.60660
O717        O  0.86714772  0.93535463  0.71615846    -0.52630
C718        C  0.87444298  0.90927598  0.73475156     0.72820
O719        O  0.77706420  0.90688710  0.83968949    -0.72050
O720        O  0.72340356  0.93097539  0.83991663    -0.50730
C721        C  0.74830856  0.91447307  0.85412352     0.74210
O722        O  0.76401996  0.91306050  0.65315360    -0.67380
O723        O  0.81734861  0.91831781  0.67494187    -0.54580
C724        C  0.79787080  0.91303987  0.64925981     0.72590
Zr725      Zr  0.72799596  0.92190812  0.70803928     2.77540
O726        O  0.72268210  0.86055191  0.69286223    -0.98130
O727        O  0.67932189  0.93270739  0.66929942    -0.78950
Zr728      Zr  0.79946852  0.91245874  0.78295840     2.70070
O729        O  0.77923248  0.85271372  0.77447858    -0.80200
O730        O  0.84393591  0.88681433  0.81958653    -0.99280
Zr731      Zr  0.81628677  0.96920422  0.70946373     2.21500
Zr732      Zr  0.72277695  0.97233272  0.79313451     2.11130
O733        O  0.73996314  0.91784837  0.76870599    -2.47970
O734        O  0.78797926  0.91603529  0.72367828    -0.79990
O735        O  0.71013468  0.97602740  0.73298221    -0.72190
O736        O  0.82810401  0.96504183  0.76858093    -2.33140
O737        O  0.75756593  0.97435242  0.68929418    -2.29350
O738        O  0.78146970  0.96514453  0.80963461    -0.73950
H739        H  0.73943607  0.04509443  0.78628888     0.78050
H740        H  0.85265521  0.96325726  0.77389073     0.79140
H741        H  0.72848496  0.89847233  0.77983898     0.81360
H742        H  0.75693375  0.97615025  0.66452099     0.78970
H743        H  0.85325460  0.05383911  0.83767888     0.42010
H744        H  0.85086275  0.90557545  0.83583742     0.40980
H745        H  0.79008131  0.84540395  0.75252440     0.40650
H746        H  0.72524826  0.84820423  0.71501042     0.38590
H747        H  0.66018326  0.94035095  0.68458733     0.41720
H748        H  0.68044672  0.01082222  0.67089064     0.36500
H749        H  0.76316657  0.09852148  0.71262983     0.42620
H750        H  0.78881754  0.08685875  0.77239641     0.39040
H751        H  0.69777275  0.85725025  0.68661763     0.43960
H752        H  0.71146367  0.01846878  0.64571191     0.42680
H753        H  0.82157911  0.09070522  0.79622795     0.42810
H754        H  0.83164414  0.86924892  0.83382653     0.43170
O755        O  0.67674961  0.71049230  0.06641263    -0.75700
O756        O  0.67001909  0.76172855  0.03802454    -0.54610
C757        C  0.66059149  0.73990049  0.06085573     0.78030
O758        O  0.85039212  0.71970548  0.06683369    -0.60300
O759        O  0.85778845  0.67559857  0.02871829    -0.53330
C760        C  0.86489826  0.69161810  0.05655747     0.70040
O761        O  0.76768355  0.80041152  0.07090855    -0.74860
O762        O  0.71638978  0.80681397  0.04181872    -0.55420
C763        C  0.73822272  0.81449259  0.06540301     0.76050
O764        O  0.77386543  0.63120764  0.05805652    -0.60000
O765        O  0.80524631  0.62434043  0.01022155    -0.53120
C766        C  0.79971397  0.61688997  0.04152362     0.72640
Zr767      Zr  0.72892985  0.67701575  0.04143080     2.54710
O768        O  0.71893052  0.65952911  0.10074245    -0.80570
O769        O  0.68910965  0.62930309  0.02702841    -0.93990
Zr770      Zr  0.80211849  0.75488946  0.04784047     2.64680
O771        O  0.81713319  0.75786801  0.10874156    -0.98940
O772        O  0.84626888  0.80061470  0.04170498    -0.81000
O773        O  0.74200816  0.73716322  0.04922119    -0.84360
O774        O  0.78815921  0.69575027  0.04273521    -2.19070
O775        O  0.77122394  0.64211481  0.91095405    -0.67750
O776        O  0.81660561  0.63720520  0.94818066    -0.52310
C777        C  0.80092616  0.62818350  0.92074213     0.71020
O778        O  0.77577966  0.82598201  0.94936718    -0.60660
O779        O  0.72264323  0.82053895  0.97375469    -0.52630
C780        C  0.74681790  0.83843924  0.95943655     0.72820
O781        O  0.85809810  0.75687404  0.94138416    -0.72050
O782        O  0.86412127  0.70064445  0.95776398    -0.50730
C783        C  0.87464108  0.72850014  0.94256911     0.74210
O784        O  0.68434725  0.73553614  0.91819405    -0.67380
O785        O  0.66476506  0.75560587  0.96867172    -0.54580
C786        C  0.66354113  0.75544339  0.93620232     0.72590
Zr787      Zr  0.72929651  0.68928400  0.93556432     2.77540
O788        O  0.71873649  0.68268002  0.87402635    -0.98130
O789        O  0.68272186  0.64574893  0.93858455    -0.78950
Zr790      Zr  0.79741432  0.76816969  0.94614350     2.70070
O791        O  0.78171234  0.76524601  0.88532484    -0.80200
O792        O  0.83057181  0.81635285  0.92088293    -0.99280
Zr793      Zr  0.71782902  0.76319341  0.99943841     2.21500
Zr794      Zr  0.81170995  0.68214867  0.98823336     2.11130
O795        O  0.78889021  0.70745553  0.93748313    -2.47970
O796        O  0.73816569  0.75067219  0.94324194    -0.79990
O797        O  0.75259813  0.66241545  0.98598428    -0.72190
O798        O  0.77636703  0.78317447  0.00120959    -2.33140
O799        O  0.70468771  0.70282438  0.99117520    -2.29350
O800        O  0.82575939  0.74163683  0.99378498    -0.73950
H801        H  0.79920300  0.68458426  0.06175728     0.78050
H802        H  0.77902516  0.80755975  0.00664339     0.79140
H803        H  0.80133893  0.69974187  0.91742823     0.81360
H804        H  0.67982359  0.69823280  0.99101533     0.78970
H805        H  0.84544744  0.80728746  0.01713870     0.42010
H806        H  0.84899992  0.82258441  0.93782471     0.40980
H807        H  0.76563083  0.74504888  0.88277887     0.40650
H808        H  0.74200218  0.68562077  0.86325727     0.38590
H809        H  0.69476137  0.62403143  0.94492540     0.41720
H810        H  0.66561138  0.63857695  0.03196865     0.36500
H811        H  0.73629002  0.67325272  0.11418890     0.42620
H812        H  0.79866871  0.74415397  0.12043830     0.39040
H813        H  0.71287327  0.65771343  0.87078235     0.43960
H814        H  0.69305114  0.61183721  0.04523113     0.42680
H815        H  0.81347668  0.78228215  0.11597088     0.42810
H816        H  0.84313987  0.80656150  0.90086381     0.43170
C817        C  0.71310708  0.89038785  0.90203386    -0.02250
C818        C  0.74461731  0.90497449  0.88997157     0.07430
C819        C  0.77276885  0.91053416  0.91324472    -0.02370
C820        C  0.77057234  0.89580331  0.94600939    -0.02370
C821        C  0.74102660  0.87542527  0.95353412     0.07560
C822        C  0.71009922  0.88330615  0.93676937    -0.02570
Br823      Br  0.68137507  0.91545689  0.96081330    -0.01110
Br824      Br  0.67862806  0.87042993  0.87210880    -0.01190
Br825      Br  0.81000123  0.89554803  0.97685171    -0.01150
Br826      Br  0.81567285  0.93305658  0.89973005    -0.01130
C827        C  0.89371320  0.71964644  0.88396913    -0.02250
C828        C  0.90320417  0.72577524  0.91845047     0.07430
C829        C  0.93828933  0.72473852  0.92880997    -0.02370
C830        C  0.96385569  0.71564535  0.90460531    -0.02370
C831        C  0.95401220  0.70974398  0.87024630     0.07560
C832        C  0.91870936  0.70934189  0.86062492    -0.02570
Br833      Br  0.90390143  0.69281869  0.81577712    -0.01110
Br834      Br  0.84620962  0.72341235  0.86810183    -0.01190
Br835      Br  0.01114440  0.70840122  0.91861599    -0.01150
Br836      Br  0.95146509  0.74131852  0.97372015    -0.01130
C837        C  0.93615361  0.89904462  0.74914476    -0.02250
C838        C  0.90745274  0.89339841  0.72730210     0.07430
C839        C  0.91159780  0.87770972  0.69497532    -0.02370
C840        C  0.94479250  0.86899662  0.68376686    -0.02370
C841        C  0.97178212  0.86809265  0.70784067     0.07560
C842        C  0.96905544  0.88771295  0.73850902    -0.02570
Br843      Br  0.00865053  0.89115469  0.76904234    -0.01110
Br844      Br  0.92926979  0.91698531  0.79509631    -0.01190
Br845      Br  0.95176857  0.85166302  0.63811518    -0.01150
Br846      Br  0.87156609  0.86037201  0.67027827    -0.01130
C847        C  0.71929895  0.05831401  0.94068632    -0.02250
C848        C  0.74815760  0.08091546  0.94453851     0.07430
C849        C  0.78163823  0.06733391  0.93804888    -0.02370
C850        C  0.78469432  0.03839474  0.91652477    -0.02370
C851        C  0.75419056  0.02376921  0.90141317     0.07560
C852        C  0.72222379  0.02955708  0.91838711    -0.02570
Br853      Br  0.68464308  0.99653564  0.91500380    -0.01110
Br854      Br  0.67945204  0.06250651  0.97017964    -0.01190
Br855      Br  0.83065369  0.02038839  0.90776258    -0.01150
Br856      Br  0.82312897  0.08741919  0.95935474    -0.01130
C857        C  0.71663511  0.11470269  0.11072059    -0.02250
C858        C  0.72546524  0.10540418  0.07697405     0.07430
C859        C  0.74165758  0.07351604  0.06968348    -0.02370
C860        C  0.74924992  0.05080970  0.09634386    -0.02370
C861        C  0.74088581  0.06065275  0.12985454     0.07560
C862        C  0.72665593  0.09334182  0.13750802    -0.02570
Br863      Br  0.72062851  0.10900615  0.18444317    -0.01110
Br864      Br  0.69520636  0.15894606  0.12054933    -0.01190
Br865      Br  0.77629449  0.00946835  0.08815692    -0.01150
Br866      Br  0.75835799  0.06309527  0.02458272    -0.01130
C867        C  0.71573674  0.85514231  0.14760447    -0.02250
C868        C  0.71551437  0.89004087  0.13722896     0.07430
C869        C  0.71478303  0.89951082  0.10271539    -0.02370
C870        C  0.72181920  0.87417183  0.07845947    -0.02370
C871        C  0.72815590  0.84010493  0.08939557     0.07560
C872        C  0.72503650  0.83023902  0.12387459    -0.02570
Br873      Br  0.73851159  0.78460018  0.13962254    -0.01110
Br874      Br  0.70881357  0.84212793  0.19494440    -0.01190
Br875      Br  0.72859480  0.88766219  0.03195482    -0.01150
Br876      Br  0.70879178  0.94727931  0.08915497    -0.01130
C877        C  0.31464528  0.12259665  0.10664500    -0.02250
C878        C  0.31866495  0.10731205  0.07411878     0.07430
C879        C  0.32050187  0.07121095  0.07039005    -0.02370
C880        C  0.31976553  0.05102841  0.09996584    -0.02370
C881        C  0.30732787  0.06605733  0.13063876     0.07560
C882        C  0.30204377  0.10207427  0.13286765    -0.02570
Br883      Br  0.27697681  0.12420007  0.17003859    -0.01110
Br884      Br  0.32038906  0.17205230  0.11371983    -0.01190
Br885      Br  0.33895705  0.00545371  0.09807674    -0.01150
Br886      Br  0.31900354  0.04900603  0.02621257    -0.01130
C887        C  0.10977335  0.23575802  0.06600066    -0.02250
C888        C  0.14424755  0.24639633  0.07271707     0.07430
C889        C  0.15436871  0.25847214  0.10558000    -0.02370
C890        C  0.13018574  0.25861883  0.13203890    -0.02370
C891        C  0.09688471  0.24422462  0.12619143     0.07560
C892        C  0.08630530  0.23292617  0.09335954    -0.02570
Br893      Br  0.04128067  0.21101628  0.08663226    -0.01110
Br894      Br  0.09531819  0.22469680  0.01986754    -0.01190
Br895      Br  0.14433952  0.27505968  0.17715745    -0.01150
Br896      Br  0.20172175  0.27274919  0.11581633    -0.01130
C897        C  0.87245022  0.27740499  0.11689167    -0.02250
C898        C  0.88241761  0.27583946  0.08227642     0.07430
C899        C  0.91743381  0.28093233  0.07277099    -0.02370
C900        C  0.94327120  0.27964872  0.09818545    -0.02370
C901        C  0.93319547  0.27245765  0.13220916     0.07560
C902        C  0.89791641  0.27492031  0.14209873    -0.02570
Br903      Br  0.88368324  0.27287813  0.18964229    -0.01110
Br904      Br  0.82386146  0.28153958  0.12956618    -0.01190
Br905      Br  0.99148646  0.28684386  0.08602673    -0.01150
Br906      Br  0.92973682  0.29152592  0.02610285    -0.01130
C907        C  0.87090328  0.09249611  0.30333112    -0.02250
C908        C  0.88191194  0.05821811  0.30745636     0.07430
C909        C  0.91710032  0.04950959  0.31024800    -0.02370
C910        C  0.94204130  0.07512176  0.30368835    -0.02370
C911        C  0.93056431  0.10804459  0.29333427     0.07560
C912        C  0.89521801  0.11730461  0.29388431    -0.02570
Br913      Br  0.87949115  0.16311607  0.28017033    -0.01110
Br914      Br  0.82155059  0.10333631  0.30391251    -0.01190
Br915      Br  0.99098364  0.06424041  0.30631904    -0.01150
Br916      Br  0.93073660  0.00273895  0.32073372    -0.01130
C917        C  0.11077923  0.04184298  0.26117952    -0.02250
C918        C  0.13862238  0.04772659  0.28417170     0.07430
C919        C  0.13694890  0.07302316  0.30994798    -0.02370
C920        C  0.10694001  0.09222033  0.31345597    -0.02370
C921        C  0.08092668  0.08992113  0.28818932     0.07560
C922        C  0.08172136  0.06354454  0.26294169    -0.02570
Br923      Br  0.04588780  0.06097126  0.22804968    -0.01110
Br924      Br  0.11507817  0.00826589  0.22438240    -0.01190
Br925      Br  0.10712342  0.12871927  0.34666281    -0.01150
Br926      Br  0.17883156  0.08909328  0.33325842    -0.01130
C927        C  0.28798038  0.86116238  0.11068115    -0.02250
C928        C  0.28765895  0.86818581  0.07542516     0.07430
C929        C  0.28742735  0.90295061  0.06435477    -0.02370
C930        C  0.28421704  0.92938572  0.08918204    -0.02370
C931        C  0.29367369  0.92194103  0.12341854     0.07560
C932        C  0.29885736  0.88714055  0.13284166    -0.02570
Br933      Br  0.32392938  0.87268415  0.17278055    -0.01110
Br934      Br  0.27271544  0.81718805  0.12990173    -0.01190
Br935      Br  0.26175688  0.97212188  0.07684506    -0.01150
Br936      Br  0.29210441  0.91492863  0.01704357    -0.01130
C937        C  0.13524115  0.68839638  0.86614033    -0.02250
C938        C  0.11272851  0.71671585  0.86505097     0.07430
C939        C  0.09914731  0.73183529  0.89485588    -0.02370
C940        C  0.10924674  0.71851861  0.92649649    -0.02370
C941        C  0.13484228  0.69292320  0.92756709     0.07560
C942        C  0.14381495  0.67461269  0.89778003    -0.02570
Br943      Br  0.17419089  0.63564559  0.90019365    -0.01110
Br944      Br  0.15625255  0.67057724  0.82448993    -0.01190
Br945      Br  0.09096622  0.73642363  0.96847887    -0.01150
Br946      Br  0.06982432  0.77224436  0.89193269    -0.01130
C947        C  0.88634910  0.86555237  0.29827132    -0.02250
C948        C  0.89277225  0.89836481  0.28347219     0.07430
C949        C  0.92480308  0.90644805  0.26755370    -0.02370
C950        C  0.94976859  0.88044443  0.26437129    -0.02370
C951        C  0.94222557  0.84746904  0.27784472     0.07560
C952        C  0.91141730  0.84018209  0.29576926    -0.02570
Br953      Br  0.90027971  0.79314028  0.31027947    -0.01110
Br954      Br  0.84073452  0.85158897  0.31450112    -0.01190
Br955      Br  0.99119340  0.88784198  0.23703525    -0.01150
Br956      Br  0.93141607  0.95024674  0.24422821    -0.01130
C957        C  0.08875456  0.88534673  0.29308021    -0.02250
C958        C  0.09771912  0.85115434  0.28421909     0.07430
C959        C  0.13152571  0.84297524  0.27423621    -0.02370
C960        C  0.15303205  0.86908178  0.26255852    -0.02370
C961        C  0.14513150  0.90381533  0.27091031     0.07560
C962        C  0.11379506  0.91189979  0.28819120    -0.02570
Br963      Br  0.10500052  0.95839613  0.30426103    -0.01110
Br964      Br  0.04403044  0.89519869  0.31298423    -0.01190
Br965      Br  0.19480476  0.85509111  0.23939558    -0.01150
Br966      Br  0.14813836  0.79551280  0.27737525    -0.01130
C967        C  0.87662756  0.66781201  0.11371550    -0.02250
C968        C  0.88862509  0.67517017  0.08025212     0.07430
C969        C  0.92382892  0.67020414  0.07155636    -0.02370
C970        C  0.94821454  0.66699122  0.09803721    -0.02370
C971        C  0.93633500  0.66704844  0.13213106     0.07560
C972        C  0.90087388  0.66284806  0.13973904    -0.02570
Br973      Br  0.88590729  0.65441921  0.18644241    -0.01110
Br974      Br  0.82760256  0.66714122  0.12494932    -0.01190
Br975      Br  0.99736180  0.66626904  0.08792614    -0.01150
Br976      Br  0.93910820  0.67048721  0.02454441    -0.01130
C977        C  0.13519269  0.69212483  0.09359797    -0.02250
C978        C  0.13233517  0.71697639  0.06747441     0.07430
C979        C  0.10267213  0.73844777  0.06597102    -0.02370
C980        C  0.07429112  0.73118373  0.08766794    -0.02370
C981        C  0.07666280  0.70397022  0.11163317     0.07560
C982        C  0.10635414  0.68313987  0.11287949    -0.02570
Br983      Br  0.11179666  0.64772709  0.14707916    -0.01110
Br984      Br  0.18025542  0.67827051  0.11103452    -0.01190
Br985      Br  0.03353864  0.76030703  0.08740231    -0.01150
Br986      Br  0.10336657  0.78183255  0.04116391    -0.01130
C987        C  0.93266598  0.23975765  0.93426186    -0.02250
C988        C  0.89750450  0.24277341  0.92446014     0.07430
C989        C  0.88836842  0.24172849  0.88967859    -0.02370
C990        C  0.91372399  0.23565883  0.86536045    -0.02370
C991        C  0.94888185  0.24075956  0.87417508     0.07560
C992        C  0.95856784  0.24376240  0.90901927    -0.02570
Br993      Br  0.00557975  0.25426371  0.92261401    -0.01110
Br994      Br  0.94506455  0.22222587  0.97868582    -0.01190
Br995      Br  0.89876913  0.22327505  0.81978546    -0.01150
Br996      Br  0.84142079  0.24926255  0.87425381    -0.01130
C997        C  0.08385815  0.22312034  0.89580050    -0.02250
C998        C  0.08142640  0.25405623  0.87677862     0.07430
C999        C  0.10454309  0.28190676  0.88232744    -0.02370
C1000       C  0.13560161  0.27515854  0.89869413    -0.02370
C1001       C  0.13831170  0.24481883  0.91826356     0.07560
C1002       C  0.11172128  0.21932962  0.91843849    -0.02570
Br1003     Br  0.11623084  0.17714931  0.94476410    -0.01110
Br1004     Br  0.05238247  0.18442526  0.88682355    -0.01190
Br1005     Br  0.17690871  0.30008915  0.88351922    -0.01150
Br1006     Br  0.09873759  0.32590019  0.86002077    -0.01130
C1007       C  0.89864247  0.07784070  0.72102857    -0.02250
C1008       C  0.90826023  0.04535105  0.73393749     0.07430
C1009       C  0.94341030  0.03626617  0.73752965    -0.02370
C1010       C  0.96918861  0.06161637  0.73165220    -0.02370
C1011       C  0.95952482  0.09340670  0.71683452     0.07560
C1012       C  0.92442592  0.10034416  0.70960510    -0.02570
Br1013     Br  0.91090232  0.14313867  0.68881177    -0.01110
Br1014     Br  0.84995114  0.09085552  0.71687192    -0.01190
Br1015     Br  0.01594888  0.05459523  0.74829144    -0.01150
Br1016     Br  0.95599996  0.99050727  0.75173757    -0.01130
C1017       C  0.30421520  0.90875599  0.90004370    -0.02250
C1018       C  0.32397531  0.90534195  0.86966169     0.07430
C1019       C  0.33664581  0.87231562  0.86001997    -0.02370
C1020       C  0.32852799  0.84317527  0.87997365    -0.02370
C1021       C  0.30837731  0.84732815  0.90964285     0.07560
C1022       C  0.29431733  0.87937723  0.91841458    -0.02570
Br1023     Br  0.25376384  0.88068931  0.94808666    -0.01110
Br1024     Br  0.28460445  0.95206725  0.91344596    -0.01190
Br1025     Br  0.33716699  0.79700601  0.86245253    -0.01150
Br1026     Br  0.35769640  0.86490833  0.81579468    -0.01130
C1027       C  0.32608498  0.03535549  0.91020116    -0.02250
C1028       C  0.29519178  0.02939711  0.89139406     0.07430
C1029       C  0.26311911  0.03772553  0.90701913    -0.02370
C1030       C  0.26329682  0.06334762  0.93232294    -0.02370
C1031       C  0.29514560  0.08021820  0.93976848     0.07560
C1032       C  0.32640686  0.06234903  0.93436958    -0.02570
Br1033     Br  0.36829662  0.07471367  0.95905097    -0.01110
Br1034     Br  0.36513971  0.00495889  0.90554345    -0.01190
Br1035     Br  0.22066103  0.07734310  0.95450635    -0.01150
Br1036     Br  0.21968772  0.01598471  0.89290417    -0.01130
C1037       C  0.12728182  0.06621681  0.69178756    -0.02250
C1038       C  0.16188500  0.07583012  0.69989011     0.07430
C1039       C  0.17439540  0.10976685  0.69313714    -0.02370
C1040       C  0.15081805  0.13517233  0.68341683    -0.02370
C1041       C  0.11516103  0.12683258  0.68282998     0.07560
C1042       C  0.10382532  0.09199060  0.68245530    -0.02570
Br1043     Br  0.05581871  0.07987621  0.67329869    -0.01110
Br1044     Br  0.11051506  0.01927960  0.69776221    -0.01190
Br1045     Br  0.16605272  0.18242209  0.67502090    -0.01150
Br1046     Br  0.22287528  0.12249711  0.69989218    -0.01130
C1047       C  0.13012976  0.89951947  0.70512560    -0.02250
C1048       C  0.16566551  0.89074953  0.70608726     0.07430
C1049       C  0.17771022  0.86077421  0.68895762    -0.02370
C1050       C  0.15357092  0.83847102  0.67307073    -0.02370
C1051       C  0.11787026  0.84496723  0.67671405     0.07560
C1052       C  0.10656569  0.87758145  0.68796753    -0.02570
Br1053     Br  0.05787124  0.88894785  0.68537200    -0.01110
Br1054     Br  0.11272609  0.93705391  0.73303652    -0.01190
Br1055     Br  0.16816178  0.79523885  0.65266431    -0.01150
Br1056     Br  0.22619445  0.84767216  0.69045281    -0.01130
C1057       C  0.95382371  0.52878258  0.80956219    -0.02250
C1058       C  0.93076552  0.53414185  0.83916047     0.07430
C1059       C  0.91441315  0.56684313  0.83820154    -0.02370
C1060       C  0.93421007  0.59507867  0.82616269    -0.02370
C1061       C  0.95172967  0.59130335  0.79455486     0.07560
C1062       C  0.96106819  0.55688350  0.78602520    -0.02570
Br1063     Br  0.98802325  0.54982530  0.74457412    -0.01110
Br1064     Br  0.97663337  0.48579049  0.79737644    -0.01190
Br1065     Br  0.95351251  0.62513245  0.86047082    -0.01150
Br1066     Br  0.87138912  0.56619229  0.81283937    -0.01130
C1067       C  0.83311225  0.54096811  0.88072252    -0.02250
C1068       C  0.86805394  0.54172474  0.89420474     0.07430
C1069       C  0.87963234  0.57252730  0.90924610    -0.02370
C1070       C  0.85919652  0.60220860  0.90771413    -0.02370
C1071       C  0.82252726  0.60080293  0.90169739     0.07560
C1072       C  0.80970989  0.56943152  0.88690764    -0.02570
Br1073     Br  0.76096562  0.56514748  0.87594041    -0.01110
Br1074     Br  0.81830583  0.50315351  0.85138016    -0.01190
Br1075     Br  0.88358976  0.64462618  0.91358133    -0.01150
Br1076     Br  0.92089919  0.57321396  0.93731357    -0.01130
C1077       C  0.92558861  0.40033159  0.78393671    -0.02250
C1078       C  0.92738887  0.36508856  0.79321879     0.07430
C1079       C  0.91662054  0.35645507  0.82673618    -0.02370
C1080       C  0.91244756  0.38163895  0.85291453    -0.02370
C1081       C  0.91468907  0.41752799  0.84471796     0.07560
C1082       C  0.91592801  0.42584029  0.80885497    -0.02570
Br1083     Br  0.89429023  0.46784991  0.79240196    -0.01110
Br1084     Br  0.93458504  0.41319796  0.73703138    -0.01190
Br1085     Br  0.90727550  0.36552044  0.90005010    -0.01150
Br1086     Br  0.90450931  0.30977754  0.83560246    -0.01130
C1087       C  0.82669142  0.42860894  0.92569847    -0.02250
C1088       C  0.84997618  0.42602550  0.89749958     0.07430
C1089       C  0.83780856  0.40171523  0.87193271    -0.02370
C1090       C  0.81668426  0.37261666  0.88149599    -0.02370
C1091       C  0.80293949  0.37054152  0.91492927     0.07560
C1092       C  0.80767742  0.39939220  0.93688127    -0.02570
Br1093     Br  0.78170715  0.40283162  0.97920844    -0.01110
Br1094     Br  0.79725052  0.46821190  0.92693498    -0.01190
Br1095     Br  0.80619553  0.33608613  0.84887813    -0.01150
Br1096     Br  0.83426599  0.41437331  0.82456688    -0.01130
C1097       C  0.95328136  0.56335640  0.14318432    -0.02250
C1098       C  0.92822135  0.53740570  0.14997116     0.07430
C1099       C  0.91641668  0.53517603  0.18494563    -0.02370
C1100       C  0.92659434  0.56051232  0.21036778    -0.02370
C1101       C  0.95443349  0.58402166  0.20394234     0.07560
C1102       C  0.96972769  0.58193161  0.17023248    -0.02570
Br1103     Br  0.01710536  0.59621875  0.15972393    -0.01110
Br1104     Br  0.96779143  0.57289196  0.09703824    -0.01190
Br1105     Br  0.90611674  0.55923607  0.25561926    -0.01150
Br1106     Br  0.88986038  0.49538397  0.20038649    -0.01130
C1107       C  0.85876624  0.58451606  0.04165650    -0.02250
C1108       C  0.82597025  0.59182547  0.05803618     0.07430
C1109       C  0.82018384  0.57569182  0.09021937    -0.02370
C1110       C  0.84525198  0.55255804  0.10446781    -0.02370
C1111       C  0.87538466  0.54172516  0.08573332     0.07560
C1112       C  0.88217027  0.55933682  0.05464408    -0.02570
Br1113     Br  0.92328321  0.54817680  0.02803559    -0.01110
Br1114     Br  0.87422590  0.60821467  0.00082025    -0.01190
Br1115     Br  0.83711057  0.53736969  0.15041322    -0.01150
Br1116     Br  0.77671789  0.58272205  0.11451171    -0.01130
C1117       C  0.95768078  0.40147018  0.15476406    -0.02250
C1118       C  0.92386486  0.41454360  0.15017335     0.07430
C1119       C  0.89813217  0.40160888  0.17437724    -0.02370
C1120       C  0.90667901  0.37572968  0.19978038    -0.02370
C1121       C  0.94168169  0.36632362  0.20508647     0.07560
C1122       C  0.96642590  0.38385298  0.18487082    -0.02570
Br1123     Br  0.01129235  0.39100879  0.20395015    -0.01110
Br1124     Br  0.99084879  0.39944110  0.11778060    -0.01190
Br1125     Br  0.87159200  0.35592820  0.22944540    -0.01150
Br1126     Br  0.85157003  0.41850392  0.17556383    -0.01130
C1127       C  0.80139054  0.39473985  0.08516133    -0.02250
C1128       C  0.81176395  0.36658431  0.06421660     0.07430
C1129       C  0.84813162  0.36583515  0.05603085    -0.02370
C1130       C  0.87273500  0.38518013  0.07523142    -0.02370
C1131       C  0.86339097  0.41648746  0.09115976     0.07560
C1132       C  0.82635530  0.42117725  0.09536968    -0.02570
Br1133     Br  0.80849761  0.46241415  0.11646595    -0.01110
Br1134     Br  0.75248288  0.39974958  0.09532941    -0.01190
Br1135     Br  0.91753632  0.36522573  0.08149383    -0.01150
Br1136     Br  0.86525405  0.35335177  0.01102931    -0.01130
C1137       C  0.85875164  0.49838183  0.98007316    -0.02250
C1138       C  0.88323089  0.48130713  0.95738523     0.07430
C1139       C  0.90812194  0.46106014  0.97593850    -0.02370
C1140       C  0.90847606  0.45781817  0.01309501    -0.02370
C1141       C  0.88376237  0.47438175  0.03531448     0.07560
C1142       C  0.85694560  0.49165328  0.01672960    -0.02570
Br1143     Br  0.81382264  0.50149317  0.03976872    -0.01110
Br1144     Br  0.82913809  0.53536208  0.96524582    -0.01190
Br1145     Br  0.94345020  0.42851184  0.03245042    -0.01150
Br1146     Br  0.94617232  0.44062984  0.95112043    -0.01130
C1147       C  0.14149181  0.58484011  0.19719028    -0.02250
C1148       C  0.10806861  0.58497982  0.21291960     0.07430
C1149       C  0.08688017  0.55496594  0.20844249    -0.02370
C1150       C  0.10236420  0.52529679  0.19489734    -0.02370
C1151       C  0.12580962  0.52963194  0.16707967     0.07560
C1152       C  0.15104834  0.55641305  0.17501412    -0.02570
Br1153     Br  0.19931871  0.54454379  0.17709328    -0.01110
Br1154     Br  0.17442976  0.62155446  0.20816139    -0.01190
Br1155     Br  0.12341775  0.50837274  0.23715646    -0.01150
Br1156     Br  0.04466789  0.54848510  0.23462302    -0.01130
C1157       C  0.17530409  0.59643688  0.07500239    -0.02250
C1158       C  0.21272881  0.59746172  0.07840137     0.07430
C1159       C  0.22880384  0.56771602  0.09125962    -0.02370
C1160       C  0.20844295  0.53750451  0.09801425    -0.02370
C1161       C  0.17110277  0.53816244  0.09789062     0.07560
C1162       C  0.15525221  0.56962557  0.08973471    -0.02570
Br1163     Br  0.10582287  0.57639642  0.09754237    -0.01110
Br1164     Br  0.14937475  0.62439441  0.04316000    -0.01190
Br1165     Br  0.23331992  0.49754619  0.11183580    -0.01150
Br1166     Br  0.27922506  0.56670370  0.09492354    -0.01130
C1167       C  0.12219119  0.38273098  0.21043028    -0.02250
C1168       C  0.09667917  0.35745285  0.20175775     0.07430
C1169       C  0.08347468  0.35837069  0.16716023    -0.02370
C1170       C  0.09593383  0.38252058  0.14269967    -0.02370
C1171       C  0.11839181  0.41004420  0.15211258     0.07560
C1172       C  0.13179725  0.40932173  0.18647438    -0.02570
Br1173     Br  0.16201329  0.44551471  0.20261021    -0.01110
Br1174     Br  0.14092689  0.38359374  0.25656858    -0.01190
Br1175     Br  0.08008176  0.37749727  0.09622946    -0.01150
Br1176     Br  0.04399819  0.33100118  0.15157528    -0.01130
C1177       C  0.22740212  0.37737149  0.09710756    -0.02250
C1178       C  0.21513550  0.35444055  0.07148805     0.07430
C1179       C  0.18041838  0.36038182  0.05956461    -0.02370
C1180       C  0.16367038  0.39184605  0.06458507    -0.02370
C1181       C  0.17313115  0.41327206  0.09215689     0.07560
C1182       C  0.20515782  0.40430224  0.10974574    -0.02570
Br1183     Br  0.22105133  0.42603234  0.15095785    -0.01110
Br1184     Br  0.27379816  0.37137593  0.11568189    -0.01190
Br1185     Br  0.12736533  0.40343075  0.03256394    -0.01150
Br1186     Br  0.14804606  0.32386106  0.04916072    -0.01130
C1187       C  0.03943363  0.47168002  0.16716179    -0.02250
C1188       C  0.06147065  0.47332965  0.13727586     0.07430
C1189       C  0.04178702  0.47456791  0.10618887    -0.02370
C1190       C  0.00489610  0.48102610  0.10481498    -0.02370
C1191       C  0.98234293  0.47788148  0.13388690     0.07560
C1192       C  0.00129303  0.47431022  0.16562364    -0.02570
Br1193     Br  0.97561795  0.47445074  0.20795927    -0.01110
Br1194     Br  0.06020974  0.45868639  0.20995946    -0.01190
Br1195     Br  0.98675229  0.49518141  0.06136257    -0.01150
Br1196     Br  0.06091411  0.45452898  0.06555823    -0.01130
C1197       C  0.13269576  0.54003655  0.81138042    -0.02250
C1198       C  0.12465439  0.54358539  0.84739231     0.07430
C1199       C  0.11078810  0.57541526  0.85833869    -0.02370
C1200       C  0.09997709  0.60064776  0.83402926    -0.02370
C1201       C  0.10692833  0.59723962  0.79763662     0.07560
C1202       C  0.12488163  0.56703238  0.78727296    -0.02570
Br1203     Br  0.13484615  0.56057589  0.73907337    -0.01110
Br1204     Br  0.15493991  0.49851536  0.79361932    -0.01190
Br1205     Br  0.06668911  0.63332742  0.85213880    -0.01150
Br1206     Br  0.09607265  0.57961648  0.90586062    -0.01130
C1207       C  0.18692100  0.54976729  0.94333744    -0.02250
C1208       C  0.18123450  0.54001609  0.90865720     0.07430
C1209       C  0.20785502  0.55258370  0.88523750    -0.02370
C1210       C  0.23446832  0.57675016  0.89630857    -0.02370
C1211       C  0.23968837  0.58323766  0.93151829     0.07560
C1212       C  0.21915514  0.56341327  0.95420469    -0.02570
Br1213     Br  0.23296891  0.55815670  0.00127267    -0.01110
Br1214     Br  0.14888707  0.56167668  0.97255118    -0.01190
Br1215     Br  0.26296723  0.60196894  0.86368510    -0.01150
Br1216     Br  0.21175042  0.53839128  0.83871330    -0.01130
C1217       C  0.07543487  0.40442136  0.79031907    -0.02250
C1218       C  0.09552141  0.37549552  0.78231303     0.07430
C1219       C  0.12957675  0.37425662  0.79585815    -0.02370
C1220       C  0.14205839  0.40042509  0.81947640    -0.02370
C1221       C  0.11988838  0.42769422  0.83190893     0.07560
C1222       C  0.08944907  0.43192504  0.81014081    -0.02570
Br1223     Br  0.07410827  0.47546110  0.79183076    -0.01110
Br1224     Br  0.02819838  0.40726757  0.77244703    -0.01190
Br1225     Br  0.19136740  0.40599701  0.81898494    -0.01150
Br1226     Br  0.15865754  0.33576733  0.78247951    -0.01130
C1227       C  0.21211161  0.41930205  0.89354186    -0.02250
C1228       C  0.17573561  0.41895149  0.90204411     0.07430
C1229       C  0.16456676  0.39335143  0.92512773    -0.02370
C1230       C  0.18700994  0.36667303  0.93596048    -0.02370
C1231       C  0.22251331  0.36424650  0.92438618     0.07560
C1232       C  0.23465511  0.39140256  0.90297623    -0.02570
Br1233     Br  0.28295486  0.39235824  0.88915559    -0.01110
Br1234     Br  0.23254799  0.45954047  0.87152605    -0.01190
Br1235     Br  0.16601872  0.33365823  0.96669958    -0.01150
Br1236     Br  0.11983308  0.39794347  0.94709269    -0.01130
C1237       C  0.12694222  0.48457300  0.98046326    -0.02250
C1238       C  0.15685931  0.47660531  0.96013814     0.07430
C1239       C  0.18708916  0.47009963  0.98105447    -0.02370
C1240       C  0.18618988  0.46829466  0.01881133    -0.02370
C1241       C  0.15662444  0.47915041  0.03938497     0.07560
C1242       C  0.12844876  0.49046839  0.01748408    -0.02570
Br1243     Br  0.09477453  0.52250783  0.03460205    -0.01110
Br1244     Br  0.08311293  0.49110762  0.95689241    -0.01190
Br1245     Br  0.22768656  0.45187411  0.04065023    -0.01150
Br1246     Br  0.23165093  0.46717923  0.95893167    -0.01130
C1247       C  0.04246812  0.44720982  0.87566212    -0.02250
C1248       C  0.06190986  0.47923503  0.86935223     0.07430
C1249       C  0.03841699  0.50768548  0.86592966    -0.02370
C1250       C  0.00265181  0.50562231  0.87552375    -0.02370
C1251       C  0.98201230  0.47433270  0.87376513     0.07560
C1252       C  0.00437089  0.44453014  0.87491606    -0.02570
Br1253     Br  0.98530673  0.39879240  0.87983572    -0.01110
Br1254     Br  0.06572610  0.40475835  0.88591737    -0.01190
Br1255     Br  0.98839728  0.54656718  0.89852503    -0.01150
Br1256     Br  0.04303838  0.54302084  0.83204454    -0.01130
C1257       C  0.60310696  0.91235513  0.85175514    -0.02250
C1258       C  0.58185885  0.88296698  0.84691763     0.07430
C1259       C  0.59007733  0.86150209  0.81777090    -0.02370
C1260       C  0.61541176  0.87200455  0.79245967    -0.02370
C1261       C  0.63504032  0.90318014  0.79647040     0.07560
C1262       C  0.62892516  0.92223038  0.82762699    -0.02570
Br1263     Br  0.65731391  0.96115113  0.84112692    -0.01110
Br1264     Br  0.59997011  0.93711907  0.89440359    -0.01190
Br1265     Br  0.62233137  0.84384263  0.75187640    -0.01150
Br1266     Br  0.57013117  0.81594385  0.81284895    -0.01130
C1267       C  0.60720300  0.83786084  0.92514509    -0.02250
C1268       C  0.57988904  0.82642631  0.90348569     0.07430
C1269       C  0.58113600  0.79097596  0.89241148    -0.02370
C1270       C  0.61126895  0.77011312  0.89782351    -0.02370
C1271       C  0.63750553  0.78100908  0.92114809     0.07560
C1272       C  0.63304930  0.81456631  0.93681810    -0.02570
Br1273     Br  0.65138007  0.82549698  0.98219813    -0.01110
Br1274     Br  0.60211220  0.88098362  0.94914518    -0.01190
Br1275     Br  0.61317896  0.72388877  0.87841259    -0.01150
Br1276     Br  0.53922373  0.76733404  0.87831532    -0.01130
C1277       C  0.43483649  0.89016268  0.78362289    -0.02250
C1278       C  0.41605700  0.92099630  0.78910887     0.07430
C1279       C  0.42112091  0.93772422  0.82172798    -0.02370
C1280       C  0.43781011  0.92070676  0.84937530    -0.02370
C1281       C  0.45847787  0.89103556  0.84387882     0.07560
C1282       C  0.45824120  0.87766209  0.80930917    -0.02570
Br1283     Br  0.49410396  0.84774737  0.79308281    -0.01110
Br1284     Br  0.43213160  0.86746623  0.73920806    -0.01190
Br1285     Br  0.43324231  0.94067184  0.89432680    -0.01150
Br1286     Br  0.41174799  0.98643634  0.82906755    -0.01130
C1287       C  0.40129721  0.82444097  0.94259521    -0.02250
C1288       C  0.39513592  0.79035921  0.92794757     0.07430
C1289       C  0.41455819  0.78126287  0.89857258    -0.02370
C1290       C  0.44078676  0.80414911  0.88579991    -0.02370
C1291       C  0.45024402  0.83550687  0.90344679     0.07560
C1292       C  0.42903915  0.84598067  0.93103883    -0.02570
Br1293     Br  0.44175225  0.88704409  0.95771113    -0.01110
Br1294     Br  0.37499680  0.84304768  0.98088655    -0.01190
Br1295     Br  0.46381820  0.79020059  0.84472225    -0.01150
Br1296     Br  0.40866596  0.73551409  0.87806657    -0.01130
C1297       C  0.59158356  0.85512171  0.17294200    -0.02250
C1298       C  0.58494014  0.87490771  0.14269830     0.07430
C1299       C  0.60715164  0.90359173  0.13688799    -0.02370
C1300       C  0.62957930  0.91678302  0.16311710    -0.02370
C1301       C  0.63366145  0.89965172  0.19578102     0.07560
C1302       C  0.61531069  0.86742250  0.19920497    -0.02570
Br1303     Br  0.61994481  0.84111528  0.24096279    -0.01110
Br1304     Br  0.57047163  0.80956101  0.17739281    -0.01190
Br1305     Br  0.64638293  0.96319243  0.15454745    -0.01150
Br1306     Br  0.60681268  0.92520381  0.09198727    -0.01130
C1307       C  0.61062670  0.80791508  0.10225670    -0.02250
C1308       C  0.57649016  0.80747880  0.08765872     0.07430
C1309       C  0.56936755  0.77545151  0.06789517    -0.02370
C1310       C  0.59619415  0.75027650  0.06160922    -0.02370
C1311       C  0.62794978  0.75124006  0.07961489     0.07560
C1312       C  0.63083266  0.77756024  0.10439712    -0.02570
Br1313     Br  0.65413273  0.76804218  0.14647978    -0.01110
Br1314     Br  0.64116093  0.84547480  0.09237138    -0.01190
Br1315     Br  0.59036509  0.71262052  0.02864934    -0.01150
Br1316     Br  0.52558560  0.76131417  0.04731573    -0.01130
C1317       C  0.40643423  0.90654631  0.16111862    -0.02250
C1318       C  0.40756666  0.90165619  0.19793481     0.07430
C1319       C  0.43703415  0.88404879  0.21059470    -0.02370
C1320       C  0.46478775  0.87444233  0.18784170    -0.02370
C1321       C  0.46154789  0.87751416  0.15125932     0.07560
C1322       C  0.43074573  0.89154209  0.13840231    -0.02570
Br1323     Br  0.42515698  0.89596689  0.08871045    -0.01110
Br1324     Br  0.38210941  0.94323734  0.13966157    -0.01190
Br1325     Br  0.50726365  0.85873521  0.20776229    -0.01150
Br1326     Br  0.44192614  0.87795209  0.25957005    -0.01130
C1327       C  0.42850834  0.81448758  0.12234101    -0.02250
C1328       C  0.46204701  0.80902680  0.10924590     0.07430
C1329       C  0.46813552  0.77333446  0.10239872    -0.02370
C1330       C  0.43977094  0.75166361  0.09027490    -0.02370
C1331       C  0.40556491  0.76552360  0.08906666     0.07560
C1332       C  0.40096022  0.79783057  0.10546637    -0.02570
Br1333     Br  0.35680190  0.81774750  0.10998276    -0.01110
Br1334     Br  0.42326221  0.80529288  0.17070376    -0.01190
Br1335     Br  0.44786856  0.70490898  0.07513235    -0.01150
Br1336     Br  0.50543076  0.75228062  0.12784950    -0.01130
C1337       C  0.48440460  0.82659888  0.01403572    -0.02250
C1338       C  0.51375616  0.83730301  0.03512274     0.07430
C1339       C  0.54347729  0.84484451  0.01392977    -0.02370
C1340       C  0.54532088  0.83441093  0.97851572    -0.02370
C1341       C  0.51543790  0.83436004  0.95720876     0.07560
C1342       C  0.48680825  0.82127962  0.97695480    -0.02570
Br1343     Br  0.47071096  0.77603743  0.96257047    -0.01110
Br1344     Br  0.43967718  0.81883340  0.03288821    -0.01190
Br1345     Br  0.56647177  0.78942662  0.97712712    -0.01150
Br1346     Br  0.58256691  0.87069408  0.03029022    -0.01130
C1347       C  0.59999325  0.09970161  0.81303630    -0.02250
C1348       C  0.58096876  0.07400456  0.83296900     0.07430
C1349       C  0.58977230  0.03974880  0.82559088    -0.02370
C1350       C  0.61011259  0.03091501  0.79716901    -0.02370
C1351       C  0.63455195  0.05465580  0.78425373     0.07560
C1352       C  0.62940337  0.08984669  0.79246541    -0.02570
Br1353     Br  0.66200592  0.12393051  0.77495078    -0.01110
Br1354     Br  0.58603148  0.14657455  0.80723336    -0.01190
Br1355     Br  0.60314815  0.98710993  0.77456652    -0.01150
Br1356     Br  0.59112900  0.00961466  0.86311518    -0.01130
C1357       C  0.57589292  0.16611067  0.88747722    -0.02250
C1358       C  0.58373058  0.13005890  0.89176678     0.07430
C1359       C  0.61972911  0.12159997  0.89220074    -0.02370
C1360       C  0.64547969  0.14797215  0.89144777    -0.02370
C1361       C  0.63661373  0.18266041  0.89816178     0.07560
C1362       C  0.60151031  0.19202890  0.89488024    -0.02570
Br1363     Br  0.58887905  0.24004115  0.89992601    -0.01110
Br1364     Br  0.53521530  0.18066013  0.86189476    -0.01190
Br1365     Br  0.69394764  0.13714552  0.88350675    -0.01150
Br1366     Br  0.63605531  0.07509564  0.89455078    -0.01130
C1367       C  0.41244597  0.10980399  0.80067214    -0.02250
C1368       C  0.41551199  0.08165076  0.77759575     0.07430
C1369       C  0.44911532  0.06884455  0.77202082    -0.02370
C1370       C  0.47670886  0.07913653  0.79449472    -0.02370
C1371       C  0.46889472  0.09495111  0.82647749     0.07560
C1372       C  0.44115219  0.11900981  0.82249890    -0.02570
Br1373     Br  0.45132392  0.16793482  0.82662165    -0.01110
Br1374     Br  0.37218632  0.13883452  0.79674934    -0.01190
Br1375     Br  0.51802773  0.09660764  0.77228621    -0.01150
Br1376     Br  0.45732183  0.04353705  0.72996990    -0.01130
C1377       C  0.42760856  0.12608136  0.89504407    -0.02250
C1378       C  0.46319333  0.13547664  0.90122084     0.07430
C1379       C  0.46891457  0.17036681  0.91491327    -0.02370
C1380       C  0.44138862  0.19513237  0.91589787    -0.02370
C1381       C  0.40703412  0.18592759  0.90680455     0.07560
C1382       C  0.40066152  0.15116215  0.89612712    -0.02570
Br1383     Br  0.35350742  0.13771101  0.88411821    -0.01110
Br1384     Br  0.41465926  0.07791784  0.88664685    -0.01190
Br1385     Br  0.44930453  0.24200473  0.93301324    -0.01150
Br1386     Br  0.51096233  0.18629523  0.93836300    -0.01130
C1387       C  0.50995900  0.00036922  0.88759001    -0.02250
C1388       C  0.51354046  0.01934475  0.85599032     0.07430
C1389       C  0.51792467  0.99591157  0.82688863    -0.02370
C1390       C  0.52098422  0.95824900  0.82988281    -0.02370
C1391       C  0.52010122  0.94068988  0.86193345     0.07560
C1392       C  0.51506517  0.96315232  0.89074739    -0.02570
Br1393     Br  0.51634544  0.94257381  0.93604607    -0.01110
Br1394     Br  0.49467916  0.02407881  0.92753738    -0.01190
Br1395     Br  0.52859463  0.93032378  0.78938229    -0.01150
Br1396     Br  0.52044789  0.01297991  0.78130361    -0.01130
C1397       C  0.60440486  0.09217572  0.15950306    -0.02250
C1398       C  0.57323095  0.07236432  0.15938736     0.07430
C1399       C  0.56855302  0.05253955  0.19126183    -0.02370
C1400       C  0.59554320  0.05212172  0.21693179    -0.02370
C1401       C  0.62977110  0.06237276  0.20831351     0.07560
C1402       C  0.63330049  0.07637363  0.17455015    -0.02570
Br1403     Br  0.65833934  0.05165466  0.14044091    -0.01110
Br1404     Br  0.60065828  0.13878116  0.17633968    -0.01190
Br1405     Br  0.58791843  0.03179338  0.26190760    -0.01150
Br1406     Br  0.52808715  0.02553544  0.20432967    -0.01130
C1407       C  0.57704236  0.16074401  0.10015138    -0.02250
C1408       C  0.57908407  0.12474748  0.09053243     0.07430
C1409       C  0.60607052  0.11679017  0.06730163    -0.02370
C1410       C  0.62520889  0.14343452  0.05055905    -0.02370
C1411       C  0.62758412  0.17806049  0.06427000     0.07560
C1412       C  0.60306785  0.18599442  0.09013057    -0.02570
Br1413     Br  0.60179599  0.23281265  0.10795910    -0.01110
Br1414     Br  0.53810886  0.17687327  0.12588087    -0.01190
Br1415     Br  0.63832757  0.13221110  0.00396110    -0.01150
Br1416     Br  0.61859168  0.06979504  0.05724177    -0.01130
C1417       C  0.45162794  0.07084461  0.22370744    -0.02250
C1418       C  0.41505932  0.07117568  0.22076126     0.07430
C1419       C  0.40255601  0.08258662  0.18909880    -0.02370
C1420       C  0.42291022  0.08069947  0.15862697    -0.02370
C1421       C  0.46007084  0.07798734  0.16004051     0.07560
C1422       C  0.47302796  0.08061509  0.19481917    -0.02570
Br1423     Br  0.51285214  0.10989403  0.20528092    -0.01110
Br1424     Br  0.47149941  0.06292272  0.26832264    -0.01190
Br1425     Br  0.39658188  0.08008158  0.11763813    -0.01150
Br1426     Br  0.36117870  0.10928548  0.19103129    -0.01130
C1427       C  0.42226269  0.18257722  0.10195654    -0.02250
C1428       C  0.40854141  0.18103637  0.06828681     0.07430
C1429       C  0.41999841  0.15235446  0.04759351    -0.02370
C1430       C  0.43889694  0.12449007  0.06123760    -0.02370
C1431       C  0.45706104  0.12798060  0.09213649     0.07560
C1432       C  0.44700285  0.15711305  0.11356388    -0.02570
Br1433     Br  0.46145123  0.16162627  0.16047320    -0.01110
Br1434     Br  0.40751826  0.21976265  0.13190003    -0.01190
Br1435     Br  0.43313679  0.07836009  0.04200293    -0.01150
Br1436     Br  0.41658224  0.15311339  0.99831010    -0.01130
C1437       C  0.48683478  0.98854652  0.12327257    -0.02250
C1438       C  0.51634280  0.01111560  0.12825140     0.07430
C1439       C  0.54758395  0.99122719  0.13253476    -0.02370
C1440       C  0.54756689  0.95466076  0.14143027    -0.02370
C1441       C  0.51929140  0.93240486  0.13242275     0.07560
C1442       C  0.48759946  0.95239632  0.13298537    -0.02570
Br1443     Br  0.46923340  0.95769228  0.17871646    -0.01110
Br1444     Br  0.44412510  0.00499591  0.10455145    -0.01190
Br1445     Br  0.56051723  0.94716033  0.18858839    -0.01150
Br1446     Br  0.58839463  0.00751229  0.11040605    -0.01130
C1447       C  0.54533880  0.08198695  0.97713524    -0.02250
C1448       C  0.52561286  0.10580924  0.95578554     0.07430
C1449       C  0.49850338  0.11983924  0.97648094    -0.02370
C1450       C  0.50367745  0.12706784  0.01309707    -0.02370
C1451       C  0.51979838  0.10229826  0.03496280     0.07560
C1452       C  0.53827575  0.07721874  0.01427547    -0.02570
Br1453     Br  0.54377376  0.03164344  0.03346148    -0.01110
Br1454     Br  0.57725359  0.05051406  0.95591950    -0.01190
Br1455     Br  0.50288193  0.17435298  0.02888071    -0.01150
Br1456     Br  0.45918204  0.09064518  0.96640712    -0.01130
C1457       C  0.89282567  0.80412823  0.58907186    -0.02250
C1458       C  0.91456185  0.81147742  0.55948285     0.07430
C1459       C  0.93686151  0.78289401  0.55274496    -0.02370
C1460       C  0.95359024  0.76613725  0.57996028    -0.02370
C1461       C  0.93554291  0.76203541  0.61123993     0.07560
C1462       C  0.90436798  0.78058089  0.61532762    -0.02570
Br1463     Br  0.87684814  0.77072288  0.65583054    -0.01110
Br1464     Br  0.84337105  0.80455047  0.58630914    -0.01190
Br1465     Br  0.99283961  0.73690842  0.56944591    -0.01150
Br1466     Br  0.91318721  0.74383244  0.53214665    -0.01130
C1467       C  0.87554004  0.90602750  0.58616839    -0.02250
C1468       C  0.86340485  0.88305721  0.56071087     0.07430
C1469       C  0.82649504  0.87610038  0.56060575    -0.02370
C1470       C  0.80430990  0.88627798  0.58832570    -0.02370
C1471       C  0.81774693  0.90628268  0.61576840     0.07560
C1472       C  0.85326136  0.91805168  0.61244162    -0.02570
Br1473     Br  0.87400312  0.95123831  0.64321988    -0.01110
Br1474     Br  0.92259481  0.92369302  0.58432994    -0.01190
Br1475     Br  0.75594999  0.87131081  0.58907517    -0.01150
Br1476     Br  0.80543182  0.84879196  0.52517235    -0.01130
C1477       C  0.84685873  0.91509502  0.38941995    -0.02250
C1478       C  0.81284759  0.89942366  0.38408909     0.07430
C1479       C  0.80420510  0.87176391  0.40592515    -0.02370
C1480       C  0.82845916  0.86000113  0.43142810    -0.02370
C1481       C  0.86142379  0.87747637  0.43833071     0.07560
C1482       C  0.86960275  0.90490153  0.41619514    -0.02570
Br1483     Br  0.91354236  0.92858243  0.42168232    -0.01110
Br1484     Br  0.86389743  0.95375912  0.36293370    -0.01190
Br1485     Br  0.81556143  0.81702919  0.45145455    -0.01150
Br1486     Br  0.75968844  0.84829952  0.39899295    -0.01130
C1487       C  0.90552882  0.78353080  0.43270615    -0.02250
C1488       C  0.91968717  0.81805059  0.43787759     0.07430
C1489       C  0.94533945  0.82836556  0.41438077    -0.02370
C1490       C  0.95605050  0.80688891  0.38685298    -0.02370
C1491       C  0.94297683  0.77207091  0.38203972     0.07560
C1492       C  0.91674485  0.76120789  0.40512720    -0.02570
Br1493     Br  0.89805538  0.71451862  0.40055375    -0.01110
Br1494     Br  0.87370106  0.76324357  0.46448139    -0.01190
Br1495     Br  0.98978500  0.82793099  0.35675676    -0.01150
Br1496     Br  0.97006425  0.87085339  0.42234389    -0.01130
C1497       C  0.94999773  0.18795269  0.58081864    -0.02250
C1498       C  0.92843223  0.19186713  0.61013812     0.07430
C1499       C  0.89414288  0.17761965  0.60818916    -0.02370
C1500       C  0.88458719  0.15576042  0.57936346    -0.02370
C1501       C  0.91005226  0.14793310  0.55342205     0.07560
C1502       C  0.93433178  0.17589445  0.55068222    -0.02570
Br1503     Br  0.91552234  0.22134426  0.53792462    -0.01110
Br1504     Br  0.99177864  0.21595446  0.57522046    -0.01190
Br1505     Br  0.83678423  0.15856325  0.56616850    -0.01150
Br1506     Br  0.85943196  0.19391660  0.64021840    -0.01130
C1507       C  0.82917097  0.07541416  0.56285918    -0.02250
C1508       C  0.86649370  0.07668643  0.56288483     0.07430
C1509       C  0.88378293  0.06898053  0.59354769    -0.02370
C1510       C  0.86520564  0.05414939  0.62112363    -0.02370
C1511       C  0.82788240  0.05198426  0.62172010     0.07560
C1512       C  0.81015453  0.06391743  0.59226957    -0.02570
Br1513     Br  0.75982527  0.06156403  0.59079281    -0.01110
Br1514     Br  0.80315066  0.09383245  0.52461902    -0.01190
Br1515     Br  0.89391653  0.03309899  0.65463640    -0.01150
Br1516     Br  0.93350735  0.07877339  0.59840302    -0.01130
C1517       C  0.91867925  0.19642158  0.41535530    -0.02250
C1518       C  0.92427854  0.18455534  0.38156887     0.07430
C1519       C  0.91377719  0.14993915  0.37532809    -0.02370
C1520       C  0.91856510  0.12542584  0.40179403    -0.02370
C1521       C  0.91161446  0.13518093  0.43614849     0.07560
C1522       C  0.90756886  0.17201397  0.44100294    -0.02570
Br1523     Br  0.87776391  0.18911956  0.47570189    -0.01110
Br1524     Br  0.92377399  0.24517905  0.42558198    -0.01190
Br1525     Br  0.93308449  0.08023354  0.38909398    -0.01150
Br1526     Br  0.86500650  0.15117301  0.36513950    -0.01130
C1527       C  0.85509753  0.03643264  0.42894096    -0.02250
C1528       C  0.85717351  0.07067064  0.44101226     0.07430
C1529       C  0.82944709  0.09289261  0.42956129    -0.02370
C1530       C  0.80487213  0.08167704  0.40372853    -0.02370
C1531       C  0.80282097  0.04627077  0.39444685     0.07560
C1532       C  0.82506401  0.02385037  0.41225508    -0.02570
Br1533     Br  0.80757889  0.97829127  0.42288215    -0.01110
Br1534     Br  0.89596023  0.00929540  0.42721446    -0.01190
Br1535     Br  0.77184802  0.11371463  0.38440851    -0.01150
Br1536     Br  0.81986230  0.13622192  0.45072917    -0.01130
C1537       C  0.90983578  0.99583333  0.51240734    -0.02250
C1538       C  0.87986382  0.01684903  0.50548495     0.07430
C1539       C  0.84920882  0.99441075  0.50097928    -0.02370
C1540       C  0.85004280  0.95584400  0.49967500    -0.02370
C1541       C  0.88151335  0.93579600  0.50102729     0.07560
C1542       C  0.91131100  0.95833007  0.50635351    -0.02570
Br1543     Br  0.95659255  0.93925861  0.50133042    -0.01110
Br1544     Br  0.94799518  0.01627896  0.53777782    -0.01190
Br1545     Br  0.80684175  0.93033305  0.49586290    -0.01150
Br1546     Br  0.80397368  0.01472761  0.50102893    -0.01130
C1547       C  0.22470998  0.09649791  0.59882004    -0.02250
C1548       C  0.22837661  0.06137019  0.60795144     0.07430
C1549       C  0.20566266  0.03793257  0.59110263    -0.02370
C1550       C  0.17379401  0.04881722  0.57770816    -0.02370
C1551       C  0.17094128  0.08207110  0.56354356     0.07560
C1552       C  0.19832218  0.10624265  0.57422602    -0.02570
Br1553     Br  0.20313482  0.15196186  0.55674260    -0.01110
Br1554     Br  0.25840700  0.12978506  0.61634052    -0.01190
Br1555     Br  0.13535026  0.03372594  0.60498449    -0.01150
Br1556     Br  0.22133454  0.99246682  0.58007862    -0.01130
C1557       C  0.08158700  0.13001523  0.58169056    -0.02250
C1558       C  0.10822224  0.13758306  0.55824799     0.07430
C1559       C  0.12116562  0.17268040  0.55774456    -0.02370
C1560       C  0.11232412  0.19702583  0.58418781    -0.02370
C1561       C  0.08468153  0.18971236  0.60712830     0.07560
C1562       C  0.06763539  0.15624711  0.60292477    -0.02570
Br1563     Br  0.02154672  0.14490263  0.61999725    -0.01110
Br1564     Br  0.05960903  0.08464611  0.58089082    -0.01190
Br1565     Br  0.13420560  0.24241306  0.58513209    -0.01150
Br1566     Br  0.14334088  0.19105527  0.51693857    -0.01130
C1567       C  0.06595044  0.17182705  0.41402459    -0.02250
C1568       C  0.08994592  0.19386764  0.39689607     0.07430
C1569       C  0.12544842  0.18835889  0.40407727    -0.02370
C1570       C  0.13555965  0.16143491  0.42750146    -0.02370
C1571       C  0.11119994  0.13471990  0.43869184     0.07560
C1572       C  0.07663859  0.13965483  0.42695535    -0.02570
Br1573     Br  0.04893742  0.10106114  0.41073249    -0.01110
Br1574     Br  0.01686822  0.18133270  0.41295121    -0.01190
Br1575     Br  0.18250054  0.16455287  0.44242257    -0.01150
Br1576     Br  0.15993383  0.21609979  0.38011510    -0.01130
C1577       C  0.16453811  0.04907097  0.41834611    -0.02250
C1578       C  0.17300000  0.07487256  0.44259046     0.07430
C1579       C  0.20906100  0.08582082  0.44416189    -0.02370
C1580       C  0.23361058  0.07558635  0.41833774    -0.02370
C1581       C  0.22488223  0.04906296  0.39454136     0.07560
C1582       C  0.19069304  0.03355814  0.39813525    -0.02570
Br1583     Br  0.17857911  0.98857568  0.37864815    -0.01110
Br1584     Br  0.11701288  0.03278159  0.41383857    -0.01190
Br1585     Br  0.27943704  0.09669331  0.41699972    -0.01150
Br1586     Br  0.22757188  0.11046790  0.48380316    -0.01130
C1587       C  0.03369488  0.14636206  0.50132406    -0.02250
C1588       C  0.05316918  0.11479565  0.49759186     0.07430
C1589       C  0.03085617  0.08567225  0.48855417    -0.02370
C1590       C  0.99295559  0.08738954  0.48679234    -0.02370
C1591       C  0.97339413  0.11773110  0.49530008     0.07560
C1592       C  0.99568536  0.14787204  0.49854466    -0.02570
Br1593     Br  0.97652820  0.19207813  0.48692093    -0.01110
Br1594     Br  0.05839584  0.18980544  0.50452645    -0.01190
Br1595     Br  0.96890922  0.04972550  0.46399364    -0.01150
Br1596     Br  0.05131915  0.04365542  0.47125944    -0.01130
C1597       C  0.12066445  0.76431404  0.57867047    -0.02250
C1598       C  0.09384124  0.76962138  0.60298170     0.07430
C1599       C  0.07595870  0.80212449  0.60022977    -0.02370
C1600       C  0.08966982  0.83016122  0.58145321    -0.02370
C1601       C  0.11437494  0.82466657  0.55586601     0.07560
C1602       C  0.12797708  0.79015491  0.55303757    -0.02570
Br1603     Br  0.15142163  0.77551631  0.51170400    -0.01110
Br1604     Br  0.14317474  0.71985048  0.57692612    -0.01190
Br1605     Br  0.06994622  0.87525681  0.58769311    -0.01150
Br1606     Br  0.02802465  0.80871159  0.61247237    -0.01130
C1607       C  0.20115924  0.86690644  0.57341066    -0.02250
C1608       C  0.17026149  0.88641267  0.56539789     0.07430
C1609       C  0.16376941  0.91418802  0.58870825    -0.02370
C1610       C  0.18735266  0.92361879  0.61549888    -0.02370
C1611       C  0.22080380  0.90783495  0.61939167     0.07560
C1612       C  0.22674237  0.87856634  0.59828687    -0.02570
Br1613     Br  0.27067668  0.85490963  0.60255631    -0.01110
Br1614     Br  0.20797137  0.82135750  0.55531363    -0.01190
Br1615     Br  0.17200387  0.96068141  0.64570562    -0.01150
Br1616     Br  0.12197541  0.94063972  0.58730078    -0.01130
C1617       C  0.14662356  0.80466930  0.42149831    -0.02250
C1618       C  0.11921252  0.82511808  0.43720502     0.07430
C1619       C  0.08552771  0.81450536  0.42677820    -0.02370
C1620       C  0.07923966  0.78267175  0.41015275    -0.02370
C1621       C  0.10429173  0.76844137  0.38827723     0.07560
C1622       C  0.13896523  0.77993129  0.39419253    -0.02570
Br1623     Br  0.17543607  0.76063020  0.36628650    -0.01110
Br1624     Br  0.19352273  0.80455809  0.43797779    -0.01190
Br1625     Br  0.03426021  0.76116785  0.41369899    -0.01150
Br1626     Br  0.05440091  0.84877879  0.41219723    -0.01130
C1627       C  0.21618185  0.88469342  0.44697817    -0.02250
C1628       C  0.17902758  0.88618788  0.44086377     0.07430
C1629       C  0.16937583  0.89066767  0.40620690    -0.02370
C1630       C  0.19486272  0.89030705  0.37998163    -0.02370
C1631       C  0.23056020  0.89632334  0.38632443     0.07560
C1632       C  0.24106922  0.89390312  0.42086248    -0.02570
Br1633     Br  0.28962227  0.90122495  0.43174489    -0.01110
Br1634     Br  0.23470145  0.86312320  0.48733441    -0.01190
Br1635     Br  0.18295508  0.87100272  0.33698113    -0.01150
Br1636     Br  0.12251141  0.90190577  0.39350639    -0.01130
C1637       C  0.12664157  0.96265491  0.50824413    -0.02250
C1638       C  0.15705495  0.94275512  0.50191631     0.07430
C1639       C  0.18775688  0.96457104  0.49923368    -0.02370
C1640       C  0.18665307  0.00265790  0.49847708    -0.02370
C1641       C  0.15522035  0.02209162  0.50403656     0.07560
C1642       C  0.12640987  0.99991305  0.51225759    -0.02570
Br1643     Br  0.08819974  0.01833407  0.53754114    -0.01110
Br1644     Br  0.08417584  0.93880304  0.51674002    -0.01190
Br1645     Br  0.23051516  0.02695142  0.49656647    -0.01150
Br1646     Br  0.23281964  0.94430917  0.50359219    -0.01130
C1647       C  0.99655868  0.86571036  0.51025028    -0.02250
C1648       C  0.97620241  0.83623458  0.50045661     0.07430
C1649       C  0.99906163  0.80756228  0.49256532    -0.02370
C1650       C  0.03770472  0.81011809  0.49549415    -0.02370
C1651       C  0.05668944  0.84308901  0.49684097     0.07560
C1652       C  0.03195189  0.87109121  0.49862650    -0.02570
Br1653     Br  0.03364304  0.90784436  0.46516525    -0.01110
Br1654     Br  0.98910523  0.88046976  0.55609752    -0.01190
Br1655     Br  0.06331592  0.76777056  0.49848590    -0.01150
Br1656     Br  0.97832560  0.76399886  0.47947589    -0.01130
loop_ 
_geom_bond_atom_site_label_1 
_geom_bond_atom_site_label_2 
_geom_bond_distance 
_geom_bond_site_symmetry_2 
_ccdc_geom_bond_type 
C1            C2   1.479       .  A
C1            C6   1.506       .  A
C1         C1618   1.578       .  S
C2            C3   1.466       .  A
C2         C1651   1.652       .  S
C3            C4   1.487       .  A
C3         C1601   1.522       .  S
C4            C5   1.465       .  A
C4         C1608   1.577       .  S
C5            C6   1.472       .  A
C5         C1638   1.617       .  S
C6         C1628   1.551       .  S
C7            C8   1.453       .  A
C7           C12   1.493       .  A
C7         C1578   1.526       .  S
C8            C9   1.456       .  A
C8         C1641   1.615       .  S
C9           C10   1.484       .  A
C9         C1551   1.557       .  S
C10          C11   1.463       .  A
C10        C1558   1.520       .  S
C11          C12   1.460       .  A
C11        C1588   1.625       .  S
C12        C1571   1.561       .  S
C13          C14   1.461       .  A
C13          C18   1.493       .  A
C13        C1501   1.589       .  S
C14          C15   1.451       .  A
C14        C1591   1.619       .  S
C15          C16   1.493       .  A
C15        C1521   1.548       .  S
C16          C17   1.481       .  A
C16        C1528   1.544       .  S
C17          C18   1.469       .  A
C17        C1538   1.663       .  S
C18        C1508   1.509       .  S
C19          C20   1.472       .  A
C19          C24   1.509       .  A
C19        C1458   1.592       .  S
C20          C21   1.465       .  A
C20        C1648   1.638       .  S
C21          C22   1.495       .  A
C21        C1488   1.551       .  S
C22          C23   1.478       .  A
C22        C1481   1.557       .  S
C23          C24   1.462       .  A
C23        C1541   1.651       .  S
C24        C1468   1.532       .  S
C25          C26   1.491       .  A
C25          C30   1.488       .  A
C25        C1431   1.548       .  S
C26          C27   1.461       .  A
C26        C1451   1.633       .  S
C27          C28   1.495       .  A
C27        C1408   1.550       .  S
C28          C29   1.443       .  A
C28        C1398   1.572       .  S
C29          C30   1.466       .  A
C29        C1438   1.618       .  S
C30        C1421   1.584       .  S
C31          C32   1.480       .  A
C31          C36   1.506       .  A
C31        C1378   1.564       .  S
C32          C33   1.475       .  A
C32        C1448   1.647       .  S
C33          C34   1.470       .  A
C33        C1358   1.524       .  S
C34          C35   1.450       .  A
C34        C1348   1.557       .  S
C35          C36   1.460       .  A
C35        C1388   1.633       .  S
C36        C1371   1.579       .  S
C37          C38   1.514       .  A
C37          C42   1.444       .  A
C37        C1308   1.602       .  S
C38          C39   1.495       .  A
C38        C1298   1.538       .  S
C39          C40   1.440       .  A
C39        C1441   1.635       .  S
C40          C41   1.467       .  A
C40        C1321   1.521       .  S
C41          C42   1.465       .  A
C41        C1328   1.556       .  S
C42        C1338   1.624       .  S
C43          C44   1.429       .  A
C43          C48   1.475       .  A
C43        C1281   1.545       .  S
C44          C45   1.457       .  A
C44        C1391   1.592       .  S
C45          C46   1.476       .  A
C45        C1258   1.544       .  S
C46          C47   1.470       .  A
C46        C1268   1.538       .  S
C47          C48   1.476       .  A
C47        C1341   1.627       .  S
C48        C1291   1.517       .  S
C49          C50   1.443       .  A
C49          C54   1.514       .  A
C49        C1221   1.602       .  S
C50          C51   1.466       .  A
C50        C1248   1.631       .  S
C51          C52   1.479       .  A
C51        C1198   1.534       .  S
C52          C53   1.449       .  A
C52        C1208   1.557       .  S
C53          C54   1.471       .  A
C53        C1238   1.622       .  S
C54        C1228   1.524       .  S
C55          C56   1.467       .  A
C55          C60   1.490       .  A
C55        C1161   1.510       .  S
C56          C57   1.466       .  A
C56        C1241   1.644       .  S
C57          C58   1.479       .  A
C57        C1181   1.529       .  S
C58          C59   1.448       .  A
C58        C1171   1.537       .  S
C59          C60   1.457       .  A
C59        C1188   1.611       .  S
C60        C1151   1.582       .  S
C61          C62   1.439       .  A
C61          C66   1.475       .  A
C61        C1098   1.536       .  S
C62          C63   1.476       .  A
C62        C1191   1.609       .  S
C63          C64   1.488       .  A
C63        C1118   1.551       .  S
C64          C65   1.456       .  A
C64        C1131   1.551       .  S
C65          C66   1.467       .  A
C65        C1141   1.607       .  S
C66        C1111   1.540       .  S
C67          C68   1.440       .  A
C67          C72   1.489       .  A
C67        C1058   1.582       .  S
C68          C69   1.482       .  A
C68        C1251   1.625       .  S
C69          C70   1.488       .  A
C69        C1081   1.530       .  S
C70          C71   1.444       .  A
C70        C1088   1.570       .  S
C71          C72   1.454       .  A
C71        C1138   1.616       .  S
C72        C1068   1.511       .  S
O73         Zr85   2.607       .  S
O73          C75   1.314       .  A
O74        Zr111   2.363       .  S
O74          C75   1.257       .  A
C75        C1611   1.548       .  S
O76         Zr88   2.398       .  S
O76          C78   1.278       .  A
O77        Zr112   2.430       .  S
O77          C78   1.284       .  A
C78        C1018   1.453       .  S
O79         Zr88   2.378       .  S
O79          C81   1.270       .  A
O80        Zr111   2.416       .  S
O80          C81   1.272       .  A
C81        C1048   1.448       .  S
O82         Zr85   2.567       .  S
O82          C84   1.306       .  A
O83        Zr112   2.381       .  S
O83          C84   1.262       .  A
C84        C1278   1.532       .  S
Zr85         O86   2.433       .  S
Zr85         O87   2.433       .  S
Zr85         O91   2.367       .  S
Zr85         O92   2.392       .  S
Zr85        O115   2.417       .  S
Zr85        O117   2.395       .  S
O86         H129   0.990       .  S
O87         H128   0.990       .  S
O87         H132   0.990       .  S
Zr88         O89   2.440       .  S
Zr88         O90   2.434       .  S
Zr88         O92   2.360       .  S
Zr88         O91   2.373       .  S
Zr88        O116   2.376       .  S
Zr88        O118   2.336       .  S
O89         H130   0.990       .  S
O89         H133   0.990       .  S
O90         H123   0.990       .  S
O91        Zr111   2.361       .  S
O92        Zr112   2.398       .  S
O92         H119   0.963       .  S
O93        Zr105   2.535       .  S
O93          C95   1.305       .  A
O94        Zr112   2.391   1_545  S
O94          C95   1.277       .  A
C95        C1368   1.492       .  S
O96        Zr108   2.420       .  S
O96          C98   1.284       .  A
O97        Zr111   2.363   1_545  S
O97          C98   1.272       .  A
C98        C1038   1.445       .  S
O99        Zr108   2.419       .  S
O99         C101   1.285       .  A
O100       Zr112   2.401   1_545  S
O100        C101   1.281       .  A
C101       C1028   1.463       .  S
O102       Zr105   2.574       .  S
O102        C104   1.312       .  A
O103       Zr111   2.349   1_545  S
O103        C104   1.274       .  A
C104       C1548   1.523       .  S
Zr105       O106   2.434       .  S
Zr105       O107   2.433       .  S
Zr105       O113   2.399       .  S
Zr105       O114   2.359       .  S
Zr105       O117   2.391   1_545  S
Zr105       O115   2.406   1_545  S
O106        H126   0.990       .  S
O106        H131   0.990       .  S
O107        H127   0.990       .  S
Zr108       O109   2.435       .  S
Zr108       O110   2.434       .  S
Zr108       O114   2.352       .  S
Zr108       O113   2.363       .  S
Zr108       O118   2.346   1_545  S
Zr108       O116   2.364   1_545  S
O109        H125   0.990       .  S
O110        H124   0.990       .  S
O110        H134   0.990       .  S
Zr111       O114   2.352   1_565  S
Zr111       O116   2.359       .  S
Zr111       O117   2.382       .  S
Zr112       O113   2.390   1_565  S
Zr112       O115   2.391       .  S
Zr112       O118   2.353       .  S
O113        H121   0.965       .  S
O116        H120   0.966       .  S
O117        H122   0.966       .  S
O135       Zr147   2.603       .  S
O135        C137   1.312       .  A
O136       Zr173   2.343       .  S
O136        C137   1.250       .  A
C137       C1561   1.535       .  S
O138       Zr150   2.405       .  S
O138        C140   1.283       .  A
O139       Zr174   2.351       .  S
O139        C140   1.271       .  A
C140        C998   1.426       .  S
O141       Zr150   2.409       .  S
O141        C143   1.283       .  A
O142       Zr173   2.380       .  S
O142        C143   1.269       .  A
C143       C1041   1.445       .  S
O144       Zr147   2.554       .  S
O144        C146   1.310       .  A
O145       Zr174   2.368       .  S
O145        C146   1.276       .  A
C146       C1218   1.495       .  S
Zr147       O148   2.433       .  S
Zr147       O149   2.435       .  S
Zr147       O153   2.356       .  S
Zr147       O154   2.391       .  S
Zr147       O177   2.425       .  S
Zr147       O179   2.399       .  S
O148        H191   0.990       .  S
O149        H190   0.990       .  S
O149        H194   0.990       .  S
Zr150       O151   2.435       .  S
Zr150       O152   2.434       .  S
Zr150       O154   2.339       .  S
Zr150       O153   2.352       .  S
Zr150       O178   2.341       .  S
Zr150       O180   2.353       .  S
O151        H192   0.990       .  S
O151        H195   0.990       .  S
O152        H185   0.990       .  S
O153       Zr173   2.372       .  S
O154       Zr174   2.398       .  S
O154        H181   0.964       .  S
O155       Zr167   2.553       .  S
O155        C157   1.307       .  A
O156       Zr174   2.389   1_655  S
O156        C157   1.278       .  A
C157       C1078   1.514       .  S
O158       Zr170   2.394       .  S
O158        C160   1.275       .  A
O159       Zr173   2.409   1_655  S
O159        C160   1.280       .  A
C160       C1011   1.433       .  S
O161       Zr170   2.416       .  S
O161        C163   1.274       .  A
O162       Zr174   2.417   1_655  S
O162        C163   1.281       .  A
C163        C991   1.448       .  S
O164       Zr167   2.540       .  S
O164        C166   1.306       .  A
O165       Zr173   2.345   1_655  S
O165        C166   1.266       .  A
C166       C1498   1.488       .  S
Zr167       O168   2.435       .  S
Zr167       O169   2.434       .  S
Zr167       O175   2.379       .  S
Zr167       O176   2.389       .  S
Zr167       O179   2.391   1_655  S
Zr167       O177   2.399   1_655  S
O168        H188   0.990       .  S
O168        H193   0.990       .  S
O169        H189   0.990       .  S
Zr170       O171   2.441       .  S
Zr170       O172   2.445       .  S
Zr170       O176   2.352       .  S
Zr170       O175   2.396       .  S
Zr170       O180   2.343   1_655  S
Zr170       O178   2.374   1_655  S
O171        H187   0.990       .  S
O172        H186   0.990       .  S
O172        H196   0.988       .  S
Zr173       O176   2.344   1_455  S
Zr173       O178   2.350       .  S
Zr173       O179   2.398       .  S
Zr174       O175   2.371   1_455  S
Zr174       O177   2.382       .  S
Zr174       O180   2.358       .  S
O175        H183   0.964       .  S
O178        H182   0.965       .  S
O179        H184   0.966       .  S
O197       Zr209   2.562       .  S
O197        C199   1.308       .  A
O198       Zr235   2.381       .  S
O198        C199   1.278       .  A
C199       C1621   1.525       .  S
O200       Zr212   2.399       .  S
O200        C202   1.279       .  A
O201       Zr236   2.392       .  S
O201        C202   1.280       .  A
C202        C981   1.440       .  S
O203       Zr212   2.418       .  S
O203        C205   1.286       .  A
O204       Zr235   2.349       .  S
O204        C205   1.267       .  A
C205        C958   1.433       .  S
O206       Zr209   2.548       .  S
O206        C208   1.307       .  A
O207       Zr236   2.346       .  S
O207        C208   1.267       .  A
C208       C1148   1.490       .  S
Zr209       O210   2.433       .  S
Zr209       O211   2.434       .  S
Zr209       O215   2.377       .  S
Zr209       O216   2.390       .  S
Zr209       O239   2.403       .  S
Zr209       O241   2.408       .  S
O210        H253   0.990       .  S
O211        H252   0.990       .  S
O211        H256   0.990       .  S
Zr212       O213   2.441       .  S
Zr212       O214   2.435       .  S
Zr212       O216   2.360       .  S
Zr212       O215   2.359       .  S
Zr212       O240   2.334       .  S
Zr212       O242   2.351       .  S
O213        H254   0.990       .  S
O213        H257   0.990       .  S
O214        H247   0.990       .  S
O215       Zr235   2.357       .  S
O216       Zr236   2.371       .  S
O216        H243   0.965       .  S
O217       Zr229   2.601       .  S
O217        C219   1.312       .  A
O218       Zr236   2.359       .  S
O218        C219   1.258   1_455  A
C219       C1101   1.539       .  S
O220       Zr232   2.360       .  S
O220        C222   1.271       .  A
O221       Zr235   2.390   1_655  S
O221        C222   1.269       .  A
C222        C951   1.420       .  S
O223       Zr232   2.417       .  S
O223        C225   1.283       .  A
O224       Zr236   2.370   1_655  S
O224        C225   1.267       .  A
C225        C971   1.435       .  S
O226       Zr229   2.595       .  S
O226        C228   1.314       .  A
O227       Zr235   2.350   1_655  S
O227        C228   1.259       .  A
C228       C1491   1.543       .  S
Zr229       O230   2.435       .  S
Zr229       O231   2.433       .  S
Zr229       O237   2.376       .  S
Zr229       O238   2.384       .  S
Zr229       O241   2.412   1_655  S
Zr229       O239   2.409   1_655  S
O230        H250   0.990       .  S
O230        H255   0.990       .  S
O231        H251   0.990       .  S
Zr232       O233   2.433       .  S
Zr232       O234   2.436       .  S
Zr232       O238   2.388       .  S
Zr232       O237   2.341       .  S
Zr232       O242   2.333   1_655  S
Zr232       O240   2.367   1_655  S
O233        H249   0.990       .  S
O234        H248   0.990       .  S
O234        H258   0.990       .  S
Zr235       O238   2.375   1_455  S
Zr235       O240   2.362       .  S
Zr235       O241   2.378       .  S
Zr236       O237   2.378   1_455  S
Zr236       O239   2.377       .  S
Zr236       O242   2.340       .  S
O237        H245   0.962       .  S
O240        H244   0.965       .  S
O241        H246   0.966       .  S
O259       Zr271   2.393       .  S
O259        C261   1.273       .  A
O260       Zr297   2.427       .  S
O260        C261   1.284       .  A
C261        C928   1.447       .  S
O262       Zr274   2.578       .  S
O262        C264   1.314       .  A
O263       Zr298   2.305   1_554  S
O263        C264   1.257       .  A
C264       C1158   1.504       .  S
O265       Zr274   2.527       .  S
O265        C267   1.304       .  A
O266       Zr297   2.404       .  S
O266        C267   1.284       .  A
C267       C1331   1.504       .  S
O268       Zr271   2.371       .  S
O268        C270   1.264       .  A
O269       Zr298   2.415   1_554  S
O269        C270   1.279       .  A
C270        C978   1.453       .  S
Zr271       O272   2.439       .  S
Zr271       O273   2.442       .  S
Zr271       O277   2.371       .  S
Zr271       O278   2.369       .  S
Zr271       O301   2.369   1_554  S
Zr271       O303   2.361   1_554  S
O272        H315   0.990       .  S
O273        H314   0.990       .  S
O273        H318   0.989       .  S
Zr274       O275   2.434       .  S
Zr274       O276   2.435       .  S
Zr274       O278   2.360       .  S
Zr274       O277   2.413       .  S
Zr274       O302   2.393       .  S
Zr274       O304   2.377       .  S
O275        H316   0.990       .  S
O275        H319   0.990       .  S
O276        H309   0.990       .  S
O277       Zr297   2.363       .  S
O278       Zr298   2.353   1_554  S
O278        H305   0.956       .  S
O279       Zr291   2.424       .  S
O279        C281   1.285       .  A
O280       Zr298   2.335       .  S
O280        C281   1.265       .  A
C281        C941   1.429       .  S
O282       Zr294   2.578       .  S
O282        C284   1.313       .  A
O283       Zr297   2.342   1_556  S
O283        C284   1.260       .  A
C284       C1288   1.518       .  S
O285       Zr294   2.547       .  S
O285        C287   1.307       .  A
O286       Zr298   2.354       .  S
O286        C287   1.274       .  A
C287       C1211   1.507       .  S
O288       Zr291   2.353       .  S
O288        C290   1.269       .  A
O289       Zr297   2.426   1_556  S
O289        C290   1.279       .  A
C290       C1021   1.433       .  S
Zr291       O292   2.438       .  S
Zr291       O293   2.433       .  S
Zr291       O299   2.347       .  S
Zr291       O300   2.372       .  S
Zr291       O303   2.387       .  S
Zr291       O301   2.322       .  S
O292        H312   0.990       .  S
O292        H317   0.990       .  S
O293        H313   0.990       .  S
Zr294       O295   2.434       .  S
Zr294       O296   2.434       .  S
Zr294       O300   2.350       .  S
Zr294       O299   2.392       .  S
Zr294       O304   2.401   1_556  S
Zr294       O302   2.385   1_556  S
O295        H311   0.990       .  S
O296        H310   0.990       .  S
O296        H320   0.990       .  S
Zr297       O300   2.375   1_554  S
Zr297       O302   2.393       .  S
Zr297       O303   2.366   1_554  S
Zr298       O299   2.362       .  S
Zr298       O301   2.336       .  S
Zr298       O304   2.373   1_556  S
O299        H307   0.966       .  S
O302        H306   0.966       .  S
O303        H308   0.965       .  S
O321       Zr333   2.405       .  S
O321        C323   1.278       .  A
O322       Zr359   2.391       .  S
O322        C323   1.276       .  A
C323        C921   1.442       .  S
O324       Zr336   2.578       .  S
O324        C326   1.306       .  A
O325       Zr360   2.357       .  S
O325        C326   1.257       .  A
C326       C1168   1.532       .  S
O327       Zr336   2.548       .  S
O327        C329   1.305       .  A
O328       Zr359   2.337       .  S
O328        C329   1.269       .  A
C329       C1568   1.516       .  S
O330       Zr333   2.385       .  S
O330        C332   1.270       .  A
O331       Zr360   2.404       .  S
O331        C332   1.270       .  A
C332        C891   1.432       .  S
Zr333       O334   2.436       .  S
Zr333       O335   2.440       .  S
Zr333       O339   2.367       .  S
Zr333       O340   2.362       .  S
Zr333       O363   2.381       .  S
Zr333       O365   2.353       .  S
O334        H377   0.990       .  S
O335        H376   0.990       .  S
O335        H380   0.990       .  S
Zr336       O337   2.435       .  S
Zr336       O338   2.434       .  S
Zr336       O340   2.385       .  S
Zr336       O339   2.401       .  S
Zr336       O364   2.421       .  S
Zr336       O366   2.400       .  S
O337        H378   0.990       .  S
O337        H381   0.990       .  S
O338        H371   0.990       .  S
O339       Zr359   2.362       .  S
O340       Zr360   2.375       .  S
O340        H367   0.960       .  S
O341       Zr353   2.420       .  S
O341        C343   1.283       .  A
O342       Zr360   2.377   1_655  S
O342        C343   1.273       .  A
C343        C901   1.446       .  S
O344       Zr356   2.566       .  S
O344        C346   1.311       .  A
O345       Zr359   2.371   1_655  S
O345        C346   1.272       .  A
C346       C1518   1.513       .  S
O347       Zr356   2.584       .  S
O347        C349   1.313       .  A
O348       Zr360   2.361   1_655  S
O348        C349   1.276       .  A
C349       C1121   1.528       .  S
O350       Zr353   2.383       .  S
O350        C352   1.277       .  A
O351       Zr359   2.330   1_655  S
O351        C352   1.267       .  A
C352        C911   1.410       .  S
Zr353       O354   2.436       .  S
Zr353       O355   2.435       .  S
Zr353       O361   2.352       .  S
Zr353       O362   2.386       .  S
Zr353       O365   2.344   1_655  S
Zr353       O363   2.334   1_655  S
O354        H374   0.989       .  S
O354        H379   0.990       .  S
O355        H375   0.990       .  S
Zr356       O357   2.433       .  S
Zr356       O358   2.434       .  S
Zr356       O362   2.381       .  S
Zr356       O361   2.364       .  S
Zr356       O366   2.401   1_655  S
Zr356       O364   2.402   1_655  S
O357        H373   0.990       .  S
O358        H372   0.990       .  S
O358        H382   0.990       .  S
Zr359       O362   2.365   1_455  S
Zr359       O364   2.381       .  S
Zr359       O365   2.358       .  S
Zr360       O361   2.354   1_455  S
Zr360       O363   2.350       .  S
Zr360       O366   2.376       .  S
O361        H369   0.959       .  S
O364        H368   0.966       .  S
O365        H370   0.965       .  S
O383       Zr395   2.399       .  S
O383        C385   1.274       .  A
O384       Zr421   2.399       .  S
O384        C385   1.280       .  A
C385        C961   1.441       .  S
O386       Zr398   2.622       .  S
O386        C388   1.324       .  A
O387       Zr422   2.365       .  S
O387        C388   1.271       .  A
C388       C1318   1.539       .  S
O389       Zr398   2.592       .  S
O389        C391   1.317       .  A
O390       Zr421   2.368       .  S
O390        C391   1.272       .  A
C391       C1631   1.524       .  S
O392       Zr395   2.380       .  S
O392        C394   1.263       .  A
O393       Zr422   2.421       .  S
O393        C394   1.274       .  A
C394        C931   1.453       .  S
Zr395       O396   2.438       .  S
Zr395       O397   2.449       .  S
Zr395       O401   2.372       .  S
Zr395       O402   2.354       .  S
Zr395       O425   2.370       .  S
Zr395       O427   2.336       .  S
O396        H439   0.990       .  S
O397        H438   0.989       .  S
O397        H442   0.990       .  S
Zr398       O399   2.435       .  S
Zr398       O400   2.434       .  S
Zr398       O402   2.366       .  S
Zr398       O401   2.404       .  S
Zr398       O426   2.401       .  S
Zr398       O428   2.400       .  S
O399        H440   0.990       .  S
O399        H443   0.990       .  S
O400        H433   0.990       .  S
O401       Zr421   2.358       .  S
O402       Zr422   2.349       .  S
O402        H429   0.943       .  S
O403       Zr415   2.399       .  S
O403        C405   1.278       .  A
O404       Zr422   2.374   1_545  S
O404        C405   1.275       .  A
C405        C881   1.432       .  S
O406       Zr418   2.601       .  S
O406        C408   1.315       .  A
O407       Zr421   2.330   1_545  S
O407        C408   1.258       .  A
C408       C1581   1.535       .  S
O409       Zr418   2.608       .  S
O409        C411   1.320       .  A
O410       Zr422   2.369   1_545  S
O410        C411   1.273       .  A
C411       C1418   1.522       .  S
O412       Zr415   2.414       .  S
O412        C414   1.281       .  A
O413       Zr421   2.381   1_545  S
O413        C414   1.276       .  A
C414        C918   1.428       .  S
Zr415       O416   2.441       .  S
Zr415       O417   2.435       .  S
Zr415       O423   2.361       .  S
Zr415       O424   2.345       .  S
Zr415       O427   2.358   1_545  S
Zr415       O425   2.357   1_545  S
O416        H436   0.989       .  S
O416        H441   0.990       .  S
O417        H437   0.990       .  S
Zr418       O419   2.434       .  S
Zr418       O420   2.433       .  S
Zr418       O424   2.383       .  S
Zr418       O423   2.390       .  S
Zr418       O428   2.401   1_545  S
Zr418       O426   2.411   1_545  S
O419        H435   0.990       .  S
O420        H434   0.990       .  S
O420        H444   0.990       .  S
Zr421       O424   2.365   1_565  S
Zr421       O426   2.397       .  S
Zr421       O427   2.350       .  S
Zr422       O423   2.375   1_565  S
Zr422       O425   2.354       .  S
Zr422       O428   2.384       .  S
O423        H431   0.964       .  S
O426        H430   0.966       .  S
O427        H432   0.962       .  S
O445       Zr457   2.591       .  S
O445        C447   1.311       .  A
O446       Zr483   2.300   1_554  S
O446        C447   1.251       .  A
C447       C1428   1.544       .  S
O448       Zr460   2.349       .  S
O448        C450   1.266       .  A
O449       Zr484   2.414   1_554  S
O449        C450   1.279       .  A
C450        C888   1.440       .  S
O451       Zr460   2.382       .  S
O451        C453   1.277       .  A
O452       Zr483   2.363   1_554  S
O452        C453   1.270       .  A
C453        C878   1.420       .  S
O454       Zr457   2.609       .  S
O454        C456   1.322       .  A
O455       Zr484   2.317   1_554  S
O455        C456   1.265       .  A
C456       C1178   1.527       .  S
Zr457       O458   2.434       .  S
Zr457       O459   2.434       .  S
Zr457       O463   2.385       .  S
Zr457       O464   2.371       .  S
Zr457       O487   2.393   1_554  S
Zr457       O489   2.416   1_554  S
O458        H501   0.990       .  S
O459        H500   0.990       .  S
O459        H504   0.990       .  S
Zr460       O461   2.435       .  S
Zr460       O462   2.437       .  S
Zr460       O464   2.349       .  S
Zr460       O463   2.363       .  S
Zr460       O488   2.304   1_554  S
Zr460       O490   2.363   1_554  S
O461        H502   0.990       .  S
O461        H505   0.989       .  S
O462        H495   0.990       .  S
O463       Zr483   2.353   1_554  S
O464       Zr484   2.345   1_554  S
O464        H491   0.957       .  S
O465       Zr477   2.585       .  S
O465        C467   1.311       .  A
O466       Zr484   2.376       .  S
O466        C467   1.264       .  A
C467       C1231   1.537       .  S
O468       Zr480   2.424       .  S
O468        C470   1.285       .  A
O469       Zr483   2.374       .  S
O469        C470   1.271       .  A
C470       C1031   1.451       .  S
O471       Zr480   2.373       .  S
O471        C473   1.270       .  A
O472       Zr484   2.359       .  S
O472        C473   1.269       .  A
C473       C1001   1.421       .  S
O474       Zr477   2.565       .  S
O474        C476   1.310       .  A
O475       Zr483   2.324       .  S
O475        C476   1.263       .  A
C476       C1381   1.500       .  S
Zr477       O478   2.435       .  S
Zr477       O479   2.434       .  S
Zr477       O485   2.388       .  S
Zr477       O486   2.393       .  S
Zr477       O489   2.414       .  S
Zr477       O487   2.396       .  S
O478        H498   0.990       .  S
O478        H503   0.990       .  S
O479        H499   0.990       .  S
Zr480       O481   2.435       .  S
Zr480       O482   2.440       .  S
Zr480       O486   2.353       .  S
Zr480       O485   2.377       .  S
Zr480       O490   2.387       .  S
Zr480       O488   2.355       .  S
O481        H497   0.990       .  S
O482        H496   0.990       .  S
O482        H506   0.990       .  S
Zr483       O486   2.360       .  S
Zr483       O488   2.342       .  S
Zr483       O489   2.384       .  S
Zr484       O485   2.375       .  S
Zr484       O487   2.371       .  S
Zr484       O490   2.348       .  S
O485        H493   0.965       .  S
O488        H492   0.962       .  S
O489        H494   0.966       .  S
O507       Zr519   2.404       .  S
O507        C509   1.282       .  A
O508       Zr545   2.314   1_545  S
O508        C509   1.259       .  A
C509        C908   1.408       .  S
O510       Zr522   2.587       .  S
O510        C512   1.316       .  A
O511       Zr546   2.332   1_545  S
O511        C512   1.264       .  A
C512       C1401   1.507       .  S
O513       Zr522   2.536       .  S
O513        C515   1.304       .  A
O514       Zr545   2.358   1_545  S
O514        C515   1.277       .  A
C515       C1531   1.518       .  S
O516       Zr519   2.343       .  S
O516        C518   1.267       .  A
O517       Zr546   2.407   1_545  S
O517        C518   1.281       .  A
C518        C861   1.422       .  S
Zr519       O520   2.434       .  S
Zr519       O521   2.438       .  S
Zr519       O525   2.339       .  S
Zr519       O526   2.364       .  S
Zr519       O549   2.376   1_545  S
Zr519       O551   2.319   1_545  S
O520        H563   0.990       .  S
O521        H562   0.990       .  S
O521        H566   0.990       .  S
Zr522       O523   2.434       .  S
Zr522       O524   2.434       .  S
Zr522       O526   2.361       .  S
Zr522       O525   2.386       .  S
Zr522       O550   2.414   1_545  S
Zr522       O552   2.383   1_545  S
O523        H564   0.990       .  S
O523        H567   0.990       .  S
O524        H557   0.990       .  S
O525       Zr545   2.356   1_545  S
O526       Zr546   2.357   1_545  S
O526        H553   0.962       .  S
O527       Zr539   2.372       .  S
O527        C529   1.275       .  A
O528       Zr546   2.344       .  S
O528        C529   1.259       .  A
C529        C868   1.413       .  S
O530       Zr542   2.613       .  S
O530        C532   1.314       .  A
O531       Zr545   2.319       .  S
O531        C532   1.246       .  A
C532       C1478   1.542       .  S
O533       Zr542   2.595       .  S
O533        C535   1.312       .  A
O534       Zr546   2.402       .  S
O534        C535   1.269       .  A
C535       C1301   1.556       .  S
O536       Zr539   2.368       .  S
O536        C538   1.272       .  A
O537       Zr545   2.405       .  S
O537        C538   1.273       .  A
C538        C948   1.429       .  S
Zr539       O540   2.438       .  S
Zr539       O541   2.435       .  S
Zr539       O547   2.352       .  S
Zr539       O548   2.379       .  S
Zr539       O551   2.348       .  S
Zr539       O549   2.354       .  S
O540        H560   0.990       .  S
O540        H565   0.990       .  S
O541        H561   0.990       .  S
Zr542       O543   2.433       .  S
Zr542       O544   2.434       .  S
Zr542       O548   2.382       .  S
Zr542       O547   2.378       .  S
Zr542       O552   2.417       .  S
Zr542       O550   2.387       .  S
O543        H559   0.990       .  S
O544        H558   0.990       .  S
O544        H568   0.990       .  S
Zr545       O548   2.347       .  S
Zr545       O550   2.389       .  S
Zr545       O551   2.348       .  S
Zr546       O547   2.369       .  S
Zr546       O549   2.359       .  S
Zr546       O552   2.378       .  S
O547        H555   0.955       .  S
O550        H554   0.966       .  S
O551        H556   0.966       .  S
O569       Zr581   2.376       .  S
O569        C571   1.276       .  A
O570       Zr607   2.396   1_554  S
O570        C571   1.276       .  A
C571        C858   1.427       .  S
O572       Zr584   2.609       .  S
O572        C574   1.317       .  A
O573       Zr608   2.360   1_554  S
O573        C574   1.263       .  A
C574       C1128   1.537       .  S
O575       Zr584   2.612       .  S
O575        C577   1.317       .  A
O576       Zr607   2.368   1_554  S
O576        C577   1.258       .  A
C577       C1411   1.542       .  S
O578       Zr581   2.408       .  S
O578        C580   1.282       .  A
O579       Zr608   2.380   1_554  S
O579        C580   1.270       .  A
C580        C898   1.442       .  S
Zr581       O582   2.434       .  S
Zr581       O583   2.435       .  S
Zr581       O587   2.373       .  S
Zr581       O588   2.339       .  S
Zr581       O611   2.350   1_554  S
Zr581       O613   2.348   1_554  S
O582        H625   0.990       .  S
O583        H624   0.990       .  S
O583        H628   0.990       .  S
Zr584       O585   2.435       .  S
Zr584       O586   2.434       .  S
Zr584       O588   2.380       .  S
Zr584       O587   2.381       .  S
Zr584       O612   2.399   1_554  S
Zr584       O614   2.405   1_554  S
O585        H626   0.990       .  S
O585        H629   0.990       .  S
O586        H619   0.990       .  S
O587       Zr607   2.385   1_554  S
O588       Zr608   2.382   1_554  S
O588        H615   0.961       .  S
O589       Zr601   2.412       .  S
O589        C591   1.276       .  A
O590       Zr608   2.415       .  S
O590        C591   1.281       .  A
C591        C988   1.442       .  S
O592       Zr604   2.518       .  S
O592        C594   1.301       .  A
O593       Zr607   2.357       .  S
O593        C594   1.275       .  A
C594       C1361   1.482       .  S
O595       Zr604   2.539       .  S
O595        C597   1.306       .  A
O596       Zr608   2.350       .  S
O596        C597   1.271       .  A
C597       C1091   1.485       .  S
O598       Zr601   2.407       .  S
O598        C600   1.280       .  A
O599       Zr607   2.447       .  S
O599        C600   1.287       .  A
C600        C848   1.480       .  S
Zr601       O602   2.446       .  S
Zr601       O603   2.441       .  S
Zr601       O609   2.369       .  S
Zr601       O610   2.346       .  S
Zr601       O613   2.357       .  S
Zr601       O611   2.374       .  S
O602        H622   0.988       .  S
O602        H627   0.989       .  S
O603        H623   0.990       .  S
Zr604       O605   2.435       .  S
Zr604       O606   2.433       .  S
Zr604       O610   2.388       .  S
Zr604       O609   2.369       .  S
Zr604       O614   2.383       .  S
Zr604       O612   2.392       .  S
O605        H621   0.990       .  S
O606        H620   0.990       .  S
O606        H630   0.990       .  S
Zr607       O610   2.363       .  S
Zr607       O612   2.407       .  S
Zr607       O613   2.366       .  S
Zr608       O609   2.363       .  S
Zr608       O611   2.346       .  S
Zr608       O614   2.385       .  S
O609        H617   0.959       .  S
O612        H616   0.966       .  S
O613        H618   0.963       .  S
O631       Zr643   2.391       .  S
O631        C633   1.278       .  A
O632       Zr669   2.392       .  S
O632        C633   1.270       .  A
C633       C1051   1.442       .  S
O634       Zr646   2.626       .  S
O634        C636   1.321       .  A
O635       Zr670   2.358       .  S
O635        C636   1.262       .  A
C636       C1201   1.542       .  S
O637       Zr646   2.618       .  S
O637        C639   1.317       .  A
O638       Zr669   2.358       .  S
O638        C639   1.253       .  A
C639       C1598   1.537       .  S
O640       Zr643   2.343       .  S
O640        C642   1.265       .  A
O641       Zr670   2.383       .  S
O641        C642   1.272       .  A
C642        C938   1.409       .  S
Zr643       O644   2.434       .  S
Zr643       O645   2.439       .  S
Zr643       O649   2.345       .  S
Zr643       O650   2.364       .  S
Zr643       O673   2.385       .  S
Zr643       O675   2.332       .  S
O644        H687   0.990       .  S
O645        H686   0.990       .  S
O645        H690   0.990       .  S
Zr646       O647   2.434       .  S
Zr646       O648   2.434       .  S
Zr646       O650   2.384       .  S
Zr646       O649   2.378       .  S
Zr646       O674   2.414       .  S
Zr646       O676   2.401       .  S
O647        H688   0.990       .  S
O647        H691   0.990       .  S
O648        H681   0.990       .  S
O649       Zr669   2.377       .  S
O650       Zr670   2.388       .  S
O650        H677   0.964       .  S
O651       Zr663   2.387       .  S
O651        C653   1.277       .  A
O652       Zr670   2.406   1_655  S
O652        C653   1.279       .  A
C653        C831   1.445       .  S
O654       Zr666   2.552       .  S
O654        C656   1.308       .  A
O655       Zr669   2.327   1_655  S
O655        C656   1.260       .  A
C656       C1461   1.487       .  S
O657       Zr666   2.556       .  S
O657        C659   1.311       .  A
O658       Zr670   2.379   1_655  S
O658        C659   1.276       .  A
C659       C1061   1.509       .  S
O660       Zr663   2.379       .  S
O660        C662   1.278       .  A
O661       Zr669   2.416       .  S
O661        C662   1.281   1_455  A
C662        C841   1.452       .  S
Zr663       O664   2.435       .  S
Zr663       O665   2.433       .  S
Zr663       O671   2.358       .  S
Zr663       O672   2.359       .  S
Zr663       O675   2.358   1_655  S
Zr663       O673   2.348   1_655  S
O664        H684   0.990       .  S
O664        H689   0.990       .  S
O665        H685   0.990   1_655  S
Zr666       O667   2.434       .  S
Zr666       O668   2.434       .  S
Zr666       O672   2.387       .  S
Zr666       O671   2.361       .  S
Zr666       O676   2.393   1_655  S
Zr666       O674   2.381   1_655  S
O667        H683   0.990       .  S
O668        H682   0.990       .  S
O668        H692   0.990       .  S
Zr669       O672   2.360   1_455  S
Zr669       O674   2.411       .  S
Zr669       O675   2.350       .  S
Zr670       O671   2.346   1_455  S
Zr670       O673   2.353       .  S
Zr670       O676   2.375       .  S
O671        H679   0.958       .  S
O674        H678   0.966       .  S
O675        H680   0.964       .  S
O693       Zr705   2.557       .  S
O693        C695   1.310       .  A
O694       Zr731   2.391   1_545  S
O694        C695   1.275       .  A
C695       C1511   1.523       .  S
O696       Zr708   2.403       .  S
O696        C698   1.279       .  A
O697       Zr732   2.439       .  S
O697        C698   1.285   1_565  A
C698        C851   1.488       .  S
O699       Zr708   2.374       .  S
O699        C701   1.272       .  A
O700       Zr731   2.393   1_545  S
O700        C701   1.278       .  A
C701       C1008   1.431       .  S
O702       Zr705   2.529       .  S
O702        C704   1.303       .  A
O703       Zr732   2.391   1_545  S
O703        C704   1.280       .  A
C704       C1351   1.500       .  S
Zr705       O706   2.435       .  S
Zr705       O707   2.436       .  S
Zr705       O711   2.377       .  S
Zr705       O712   2.400       .  S
Zr705       O735   2.396   1_545  S
Zr705       O737   2.385   1_545  S
O706        H749   0.990       .  S
O707        H748   0.990       .  S
O707        H752   0.990       .  S
Zr708       O709   2.439       .  S
Zr708       O710   2.433       .  S
Zr708       O712   2.346       .  S
Zr708       O711   2.368       .  S
Zr708       O736   2.360   1_545  S
Zr708       O738   2.344   1_545  S
O709        H750   0.990       .  S
O709        H753   0.990       .  S
O710        H743   0.990       .  S
O711       Zr731   2.363   1_545  S
O712       Zr732   2.371   1_545  S
O712        H739   0.966       .  S
O713       Zr725   2.573       .  S
O713        C715   1.303       .  A
O714       Zr732   2.390       .  S
O714        C715   1.260       .  A
C715       C1261   1.546       .  S
O716       Zr728   2.419       .  S
O716        C718   1.279       .  A
O717       Zr731   2.369       .  S
O717        C718   1.272       .  A
C718        C838   1.439       .  S
O719       Zr728   2.376       .  S
O719        C721   1.272       .  A
O720       Zr732   2.421       .  S
O720        C721   1.278       .  A
C721        C818   1.448       .  S
O722       Zr725   2.565       .  S
O722        C724   1.305       .  A
O723       Zr731   2.367       .  S
O723        C724   1.259       .  A
C724       C1471   1.531       .  S
Zr725       O726   2.434       .  S
Zr725       O727   2.434       .  S
Zr725       O733   2.407       .  S
Zr725       O734   2.388       .  S
Zr725       O737   2.416       .  S
Zr725       O735   2.397       .  S
O726        H746   0.990       .  S
O726        H751   0.990       .  S
O727        H747   0.990       .  S
Zr728       O729   2.435       .  S
Zr728       O730   2.437       .  S
Zr728       O734   2.349       .  S
Zr728       O733   2.355       .  S
Zr728       O738   2.380       .  S
Zr728       O736   2.358       .  S
O729        H745   0.990       .  S
O730        H744   0.990       .  S
O730        H754   0.990       .  S
Zr731       O734   2.370       .  S
Zr731       O736   2.347       .  S
Zr731       O737   2.390       .  S
Zr732       O733   2.394       .  S
Zr732       O735   2.391       .  S
Zr732       O738   2.355       .  S
O733        H741   0.965       .  S
O736        H740   0.965       .  S
O737        H742   0.966       .  S
O755       Zr767   2.577       .  S
O755        C757   1.313       .  A
O756       Zr793   2.368   1_554  S
O756        C757   1.274       .  A
C757       C1311   1.515       .  S
O758       Zr770   2.419       .  S
O758        C760   1.282       .  A
O759       Zr794   2.378   1_554  S
O759        C760   1.270       .  A
C760        C968   1.445       .  S
O761       Zr770   2.376       .  S
O761        C763   1.275       .  A
O762       Zr793   2.345   1_554  S
O762        C763   1.271       .  A
C763        C871   1.410       .  S
O764       Zr767   2.560       .  S
O764        C766   1.306       .  A
O765       Zr794   2.394   1_554  S
O765        C766   1.268       .  A
C766       C1108   1.542       .  S
Zr767       O768   2.433       .  S
Zr767       O769   2.433       .  S
Zr767       O773   2.377       .  S
Zr767       O774   2.371       .  S
Zr767       O797   2.405   1_554  S
Zr767       O799   2.386   1_554  S
O768        H811   0.990       .  S
O769        H810   0.990       .  S
O769        H814   0.990       .  S
Zr770       O771   2.436       .  S
Zr770       O772   2.437       .  S
Zr770       O774   2.336       .  S
Zr770       O773   2.393       .  S
Zr770       O798   2.340       .  S
Zr770       O800   2.344   1_554  S
O771        H812   0.989       .  S
O771        H815   0.990       .  S
O772        H805   0.990       .  S
O773       Zr793   2.374   1_554  S
O774       Zr794   2.361   1_554  S
O774        H801   0.957       .  S
O775       Zr787   2.614       .  S
O775        C777   1.319       .  A
O776       Zr794   2.328       .  S
O776        C777   1.268       .  A
C777       C1071   1.534       .  S
O778       Zr790   2.383       .  S
O778        C780   1.274       .  A
O779       Zr793   2.429       .  S
O779        C780   1.277       .  A
C780        C821   1.460       .  S
O781       Zr790   2.376       .  S
O781        C783   1.268       .  A
O782       Zr794   2.432       .  S
O782        C783   1.286       .  A
C783        C828   1.446       .  S
O784       Zr787   2.580       .  S
O784        C786   1.311       .  A
O785       Zr793   2.370       .  S
O785        C786   1.262       .  A
C786       C1271   1.526       .  S
Zr787       O788   2.436       .  S
Zr787       O789   2.434       .  S
Zr787       O795   2.379       .  S
Zr787       O796   2.397       .  S
Zr787       O799   2.415       .  S
Zr787       O797   2.395       .  S
O788        H808   0.990       .  S
O788        H813   0.990       .  S
O789        H809   0.990       .  S
Zr790       O791   2.439       .  S
Zr790       O792   2.443       .  S
Zr790       O796   2.361       .  S
Zr790       O795   2.374       .  S
Zr790       O800   2.384       .  S
Zr790       O798   2.359   1_556  S
O791        H807   0.989       .  S
O792        H806   0.991       .  S
O792        H816   0.990       .  S
Zr793       O796   2.368       .  S
Zr793       O798   2.361   1_556  S
Zr793       O799   2.388       .  S
Zr794       O795   2.373       .  S
Zr794       O797   2.380       .  S
Zr794       O800   2.351       .  S
O795        H803   0.961       .  S
O798        H802   0.964       .  S
O799        H804   0.966       .  S
C817        C818   1.406       .  A
C817        C822   1.383       .  A
C817       Br824   1.909       .  S
C818        C819   1.419       .  A
C819        C820   1.398       .  A
C819       Br826   1.923       .  S
C820        C821   1.400       .  A
C820       Br825   1.926       .  S
C821        C822   1.388       .  A
C822       Br823   1.906       .  S
C827        C828   1.406       .  A
C827        C832   1.380       .  A
C827       Br834   1.927       .  S
C828        C829   1.403       .  A
C829        C830   1.404       .  A
C829       Br836   1.919       .  S
C830        C831   1.403       .  A
C830       Br835   1.914   1_655  S
C831        C832   1.402       .  A
C832       Br833   1.934       .  S
C837        C838   1.402       .  A
C837        C842   1.400       .  A
C837       Br844   1.930       .  S
C838        C839   1.401       .  A
C839        C840   1.388       .  A
C839       Br846   1.918       .  S
C840        C841   1.394       .  A
C840       Br845   1.912       .  S
C841        C842   1.412       .  A
C842       Br843   1.926   1_655  S
C847        C848   1.405       .  A
C847        C852   1.406       .  A
C847       Br854   1.917       .  S
C848        C849   1.412       .  A
C849        C850   1.394       .  A
C849       Br856   1.940       .  S
C850        C851   1.415       .  A
C850       Br855   1.928       .  S
C851        C852   1.411       .  A
C852       Br853   1.911   1_545  S
C857        C858   1.400       .  A
C857        C862   1.385       .  A
C857       Br864   1.933       .  S
C858        C859   1.408       .  A
C859        C860   1.390       .  A
C859       Br866   1.909       .  S
C860        C861   1.393       .  A
C860       Br865   1.932       .  S
C861        C862   1.406       .  A
C862       Br863   1.933       .  S
C867        C868   1.402       .  A
C867        C872   1.376       .  A
C867       Br874   1.927       .  S
C868        C869   1.392       .  A
C869        C870   1.381       .  A
C869       Br876   1.929       .  S
C870        C871   1.402       .  A
C870       Br875   1.900       .  S
C871        C872   1.399       .  A
C872       Br873   1.936       .  S
C877        C878   1.400       .  A
C877        C882   1.376       .  A
C877       Br884   1.929       .  S
C878        C879   1.397       .  A
C879        C880   1.390       .  A
C879       Br886   1.914       .  S
C880        C881   1.408       .  A
C880       Br885   1.908       .  S
C881        C882   1.403       .  A
C882       Br883   1.934       .  S
C887        C888   1.401       .  A
C887        C892   1.397       .  A
C887       Br894   1.919       .  S
C888        C889   1.409       .  A
C889        C890   1.385       .  A
C889       Br896   1.928       .  S
C890        C891   1.401       .  A
C890       Br895   1.935       .  S
C891        C892   1.403       .  A
C892       Br893   1.926       .  S
C897        C898   1.400       .  A
C897        C902   1.385       .  A
C897       Br904   1.933       .  S
C898        C899   1.403       .  A
C899        C900   1.398       .  A
C899       Br906   1.919       .  S
C900        C901   1.406       .  A
C900       Br905   1.923       .  S
C901        C902   1.409       .  A
C902       Br903   1.929       .  S
C907        C908   1.398       .  A
C907        C912   1.376       .  A
C907       Br914   1.940       .  S
C908        C909   1.396       .  A
C909        C910   1.388       .  A
C909       Br916   1.923       .  S
C910        C911   1.405       .  A
C910       Br915   1.927       .  S
C911        C912   1.403       .  A
C912       Br913   1.944       .  S
C917        C918   1.405       .  A
C917        C922   1.400       .  A
C917       Br924   1.930       .  S
C918        C919   1.394       .  A
C919        C920   1.379       .  A
C919       Br926   1.934       .  S
C920        C921   1.399       .  A
C920       Br925   1.901       .  S
C921        C922   1.408       .  A
C922       Br923   1.929       .  S
C927        C928   1.398       .  A
C927        C932   1.375       .  A
C927       Br934   1.935       .  S
C928        C929   1.406       .  A
C929        C930   1.404       .  A
C929       Br936   1.906       .  S
C930        C931   1.410       .  A
C930       Br935   1.925       .  S
C931        C932   1.405       .  A
C932       Br933   1.912       .  S
C937        C938   1.397       .  A
C937        C942   1.382       .  A
C937       Br944   1.934       .  S
C938        C939   1.397       .  A
C939        C940   1.390       .  A
C939       Br946   1.931       .  S
C940        C941   1.397       .  A
C940       Br945   1.905       .  S
C941        C942   1.397       .  A
C942       Br943   1.909       .  S
C947        C948   1.408       .  A
C947        C952   1.379       .  A
C947       Br954   1.929       .  S
C948        C949   1.406       .  A
C949        C950   1.396       .  A
C949       Br956   1.930       .  S
C950        C951   1.401       .  A
C950       Br955   1.929       .  S
C951        C952   1.397       .  A
C952       Br953   1.939       .  S
C957        C958   1.403       .  A
C957        C962   1.406       .  A
C957       Br964   1.921       .  S
C958        C959   1.391       .  A
C959        C960   1.370       .  A
C959       Br966   1.943       .  S
C960        C961   1.409       .  A
C960       Br965   1.917       .  S
C961        C962   1.413       .  A
C962       Br963   1.923       .  S
C967        C968   1.409       .  A
C967        C972   1.387       .  A
C967       Br974   1.928       .  S
C968        C969   1.405       .  A
C969        C970   1.395       .  A
C969       Br976   1.919       .  S
C970        C971   1.401       .  A
C970       Br975   1.923       .  S
C971        C972   1.398       .  A
C972       Br973   1.932       .  S
C977        C978   1.402       .  A
C977        C982   1.377       .  A
C977       Br984   1.934       .  S
C978        C979   1.413       .  A
C979        C980   1.403       .  A
C979       Br986   1.930       .  S
C980        C981   1.407       .  A
C980       Br985   1.931       .  S
C981        C982   1.399       .  A
C982       Br983   1.920       .  S
C987        C988   1.405       .  A
C987        C992   1.404       .  A
C987       Br994   1.917       .  S
C988        C989   1.396       .  A
C989        C990   1.377       .  A
C989       Br996   1.919       .  S
C990        C991   1.400       .  A
C990       Br995   1.916       .  S
C991        C992   1.407       .  A
C992       Br993   1.913   1_655  S
C997        C998   1.407       .  A
C997       C1002   1.391       .  A
C997      Br1004   1.933       .  S
C998        C999   1.396       .  A
C999       C1000   1.376       .  A
C999      Br1006   1.919       .  S
C1000      C1001   1.400       .  A
C1000     Br1005   1.934       .  S
C1001      C1002   1.404       .  A
C1002     Br1003   1.930       .  S
C1007      C1008   1.401       .  A
C1007      C1012   1.380       .  A
C1007     Br1014   1.942       .  S
C1008      C1009   1.401       .  A
C1009      C1010   1.398       .  A
C1009     Br1016   1.913   1_545  S
C1010      C1011   1.406       .  A
C1010     Br1015   1.925   1_655  S
C1011      C1012   1.401       .  A
C1012     Br1013   1.912       .  S
C1017      C1018   1.409       .  A
C1017      C1022   1.388       .  A
C1017     Br1024   1.904       .  S
C1018      C1019   1.413       .  A
C1019      C1020   1.398       .  A
C1019     Br1026   1.920       .  S
C1020      C1021   1.398       .  A
C1020     Br1025   1.930       .  S
C1021      C1022   1.391       .  A
C1022     Br1023   1.936       .  S
C1027      C1028   1.405       .  A
C1027      C1032   1.396       .  A
C1027     Br1034   1.916       .  S
C1028      C1029   1.410       .  A
C1029      C1030   1.388       .  A
C1029     Br1036   1.930       .  S
C1030      C1031   1.403       .  A
C1030     Br1035   1.928       .  S
C1031      C1032   1.402       .  A
C1032     Br1033   1.921       .  S
C1037      C1038   1.406       .  A
C1037      C1042   1.394       .  A
C1037     Br1044   1.923       .  S
C1038      C1039   1.410       .  A
C1039      C1040   1.391       .  A
C1039     Br1046   1.931       .  S
C1040      C1041   1.399       .  A
C1040     Br1045   1.930       .  S
C1041      C1042   1.403       .  A
C1042     Br1043   1.923       .  S
C1047      C1048   1.406       .  A
C1047      C1052   1.394       .  A
C1047     Br1054   1.926       .  S
C1048      C1049   1.410       .  A
C1049      C1050   1.394       .  A
C1049     Br1056   1.930       .  S
C1050      C1051   1.400       .  A
C1050     Br1055   1.926       .  S
C1051      C1052   1.399       .  A
C1052     Br1053   1.922       .  S
C1057      C1058   1.466       .  A
C1057      C1062   1.443       .  A
C1057     Br1064   1.935       .  S
C1058      C1059   1.411       .  A
C1059      C1060   1.399       .  A
C1059     Br1066   1.918       .  S
C1060      C1061   1.408       .  A
C1060     Br1065   1.902       .  S
C1061      C1062   1.412       .  A
C1062     Br1063   1.934       .  S
C1067      C1068   1.436       .  A
C1067      C1072   1.442       .  A
C1067     Br1074   1.922       .  S
C1068      C1069   1.385       .  A
C1069      C1070   1.392       .  A
C1069     Br1076   1.918       .  S
C1070      C1071   1.423       .  A
C1070     Br1075   1.882       .  S
C1071      C1072   1.415       .  A
C1072     Br1073   1.919       .  S
C1077      C1078   1.406       .  A
C1077      C1082   1.427       .  A
C1077     Br1084   1.921       .  S
C1078      C1079   1.407       .  A
C1079      C1080   1.411       .  A
C1079     Br1086   1.881       .  S
C1080      C1081   1.419       .  A
C1080     Br1085   1.946       .  S
C1081      C1082   1.432       .  A
C1082     Br1083   1.934       .  S
C1087      C1088   1.417       .  A
C1087      C1092   1.402       .  A
C1087     Br1094   1.905       .  S
C1088      C1089   1.434       .  A
C1089      C1090   1.423       .  A
C1089     Br1096   1.911       .  S
C1090      C1091   1.405       .  A
C1090     Br1095   1.925       .  S
C1091      C1092   1.405       .  A
C1092     Br1093   1.928       .  S
C1097      C1098   1.402       .  A
C1097      C1102   1.411       .  A
C1097     Br1104   1.914       .  S
C1098      C1099   1.435       .  A
C1099      C1100   1.434       .  A
C1099     Br1106   1.925       .  S
C1100      C1101   1.412       .  A
C1100     Br1105   1.927       .  S
C1101      C1102   1.438       .  A
C1102     Br1103   1.934   1_655  S
C1107      C1108   1.439       .  A
C1107      C1112   1.420       .  A
C1107     Br1114   1.924       .  S
C1108      C1109   1.415       .  A
C1109      C1110   1.429       .  A
C1109     Br1116   1.935       .  S
C1110      C1111   1.430       .  A
C1110     Br1115   1.906       .  S
C1111      C1112   1.411       .  A
C1112     Br1113   1.936       .  S
C1117      C1118   1.406       .  A
C1117      C1122   1.397       .  A
C1117     Br1124   1.921       .  S
C1118      C1119   1.448       .  A
C1119      C1120   1.445       .  A
C1119     Br1126   1.905       .  S
C1120      C1121   1.407       .  A
C1120     Br1125   1.924       .  S
C1121      C1122   1.400       .  A
C1122     Br1123   1.886   1_655  S
C1127      C1128   1.412       .  A
C1127      C1132   1.440       .  A
C1127     Br1134   1.926       .  S
C1128      C1129   1.429       .  A
C1129      C1130   1.404       .  A
C1129     Br1136   1.929       .  S
C1130      C1131   1.401       .  A
C1130     Br1135   1.903       .  S
C1131      C1132   1.441       .  A
C1132     Br1133   1.914       .  S
C1137      C1138   1.448       .  A
C1137      C1142   1.450   1_556  A
C1137     Br1144   1.919       .  S
C1138      C1139   1.433       .  A
C1139      C1140   1.450   1_556  A
C1139     Br1146   1.921       .  S
C1140      C1141   1.434       .  A
C1140     Br1145   1.915       .  S
C1141      C1142   1.426       .  A
C1142     Br1143   1.920       .  S
C1147      C1148   1.419       .  A
C1147      C1152   1.439       .  A
C1147     Br1154   1.927       .  S
C1148      C1149   1.412       .  A
C1149      C1150   1.393       .  A
C1149     Br1156   1.925       .  S
C1150      C1151   1.415       .  A
C1150     Br1155   1.946       .  S
C1151      C1152   1.435       .  A
C1152     Br1153   1.910       .  S
C1157      C1158   1.439       .  A
C1157      C1162   1.403       .  A
C1157     Br1164   1.925       .  S
C1158      C1159   1.399       .  A
C1159      C1160   1.417       .  A
C1159     Br1166   1.936       .  S
C1160      C1161   1.430       .  A
C1160     Br1165   1.896       .  S
C1161      C1162   1.397       .  A
C1162     Br1163   1.937       .  S
C1167      C1168   1.409       .  A
C1167      C1172   1.431       .  A
C1167     Br1174   1.930       .  S
C1168      C1169   1.436       .  A
C1169      C1170   1.411       .  A
C1169     Br1176   1.926       .  S
C1170      C1171   1.402       .  A
C1170     Br1175   1.912       .  S
C1171      C1172   1.430       .  A
C1172     Br1173   1.902       .  S
C1177      C1178   1.403       .  A
C1177      C1182   1.433       .  A
C1177     Br1184   1.933       .  S
C1178      C1179   1.428       .  A
C1179      C1180   1.388       .  A
C1179     Br1186   1.903       .  S
C1180      C1181   1.393       .  A
C1180     Br1185   1.922       .  S
C1181      C1182   1.449       .  A
C1182     Br1183   1.898       .  S
C1187      C1188   1.438       .  A
C1187      C1192   1.466       .  A
C1187     Br1194   1.913       .  S
C1188      C1189   1.424       .  A
C1189      C1190   1.438       .  A
C1189     Br1196   1.904       .  S
C1190      C1191   1.428   1_455  A
C1190     Br1195   1.909   1_455  S
C1191      C1192   1.438   1_655  A
C1192     Br1193   1.918   1_455  S
C1197      C1198   1.439       .  A
C1197      C1202   1.435       .  A
C1197     Br1204   1.942       .  S
C1198      C1199   1.403       .  A
C1199      C1200   1.422       .  A
C1199     Br1206   1.938       .  S
C1200      C1201   1.445       .  A
C1200     Br1205   1.931       .  S
C1201      C1202   1.413       .  A
C1202     Br1203   1.927       .  S
C1207      C1208   1.413       .  A
C1207      C1212   1.399       .  A
C1207     Br1214   1.906       .  S
C1208      C1209   1.448       .  A
C1209      C1210   1.435       .  A
C1209     Br1216   1.892       .  S
C1210      C1211   1.403       .  A
C1210     Br1215   1.931       .  S
C1211      C1212   1.404       .  A
C1212     Br1213   1.915   1_556  S
C1217      C1218   1.393       .  A
C1217      C1222   1.405       .  A
C1217     Br1224   1.941       .  S
C1218      C1219   1.407       .  A
C1219      C1220   1.435       .  A
C1219     Br1226   1.931       .  S
C1220      C1221   1.438       .  A
C1220     Br1225   1.897       .  S
C1221      C1222   1.450       .  A
C1222     Br1223   1.919       .  S
C1227      C1228   1.432       .  A
C1227      C1232   1.433       .  A
C1227     Br1234   1.929       .  S
C1228      C1229   1.398       .  A
C1229      C1230   1.411       .  A
C1229     Br1236   1.924       .  S
C1230      C1231   1.436       .  A
C1230     Br1235   1.917       .  S
C1231      C1232   1.413       .  A
C1232     Br1233   1.926       .  S
C1237      C1238   1.428       .  A
C1237      C1242   1.456   1_556  A
C1237     Br1244   1.930       .  S
C1238      C1239   1.438       .  A
C1239      C1240   1.470   1_556  A
C1239     Br1246   1.916       .  S
C1240      C1241   1.451       .  A
C1240     Br1245   1.915       .  S
C1241      C1242   1.445       .  A
C1242     Br1243   1.911       .  S
C1247      C1248   1.453       .  A
C1247      C1252   1.461       .  A
C1247     Br1254   1.911       .  S
C1248      C1249   1.430       .  A
C1249      C1250   1.421       .  A
C1249     Br1256   1.903       .  S
C1250      C1251   1.432   1_455  A
C1250     Br1255   1.892   1_455  S
C1251      C1252   1.439   1_655  A
C1252     Br1253   1.906   1_455  S
C1257      C1258   1.396       .  A
C1257      C1262   1.413       .  A
C1257     Br1264   1.911       .  S
C1258      C1259   1.435       .  A
C1259      C1260   1.438       .  A
C1259     Br1266   1.910       .  S
C1260      C1261   1.415       .  A
C1260     Br1265   1.928       .  S
C1261      C1262   1.433       .  A
C1262     Br1263   1.909       .  S
C1267      C1268   1.406       .  A
C1267      C1272   1.418       .  A
C1267     Br1274   1.910       .  S
C1268      C1269   1.428       .  A
C1269      C1270   1.428       .  A
C1269     Br1276   1.913       .  S
C1270      C1271   1.410       .  A
C1270     Br1275   1.929       .  S
C1271      C1272   1.435       .  A
C1272     Br1273   1.939       .  S
C1277      C1278   1.409       .  A
C1277      C1282   1.429       .  A
C1277     Br1284   1.932       .  S
C1278      C1279   1.430       .  A
C1279      C1280   1.416       .  A
C1279     Br1286   1.930       .  S
C1280      C1281   1.411       .  A
C1280     Br1285   1.913       .  S
C1281      C1282   1.436       .  A
C1282     Br1283   1.907       .  S
C1287      C1288   1.442       .  A
C1287      C1292   1.414       .  A
C1287     Br1294   1.936       .  S
C1288      C1289   1.408       .  A
C1289      C1290   1.419       .  A
C1289     Br1296   1.937       .  S
C1290      C1291   1.426       .  A
C1290     Br1295   1.902       .  S
C1291      C1292   1.406       .  A
C1292     Br1293   1.940       .  S
C1297      C1298   1.427       .  A
C1297      C1302   1.440       .  A
C1297     Br1304   1.928       .  S
C1298      C1299   1.404       .  A
C1299      C1300   1.419       .  A
C1299     Br1306   1.936       .  S
C1300      C1301   1.442       .  A
C1300     Br1305   1.920       .  S
C1301      C1302   1.424       .  A
C1302     Br1303   1.925       .  S
C1307      C1308   1.424       .  A
C1307      C1312   1.410       .  A
C1307     Br1314   1.888       .  S
C1308      C1309   1.470       .  A
C1309      C1310   1.440       .  A
C1309     Br1316   1.927       .  S
C1310      C1311   1.402       .  A
C1310     Br1315   1.938       .  S
C1311      C1312   1.396       .  A
C1312     Br1313   1.901       .  S
C1317      C1318   1.444       .  A
C1317      C1322   1.410       .  A
C1317     Br1324   1.895       .  S
C1318      C1319   1.411       .  A
C1319      C1320   1.434       .  A
C1319     Br1326   1.928       .  S
C1320      C1321   1.432       .  A
C1320     Br1325   1.906       .  S
C1321      C1322   1.395       .  A
C1322     Br1323   1.951       .  S
C1327      C1328   1.400       .  A
C1327      C1332   1.389       .  A
C1327     Br1334   1.924       .  S
C1328      C1329   1.418       .  A
C1329      C1330   1.438       .  A
C1329     Br1336   1.924       .  S
C1330      C1331   1.420       .  A
C1330     Br1335   1.917       .  S
C1331      C1332   1.406       .  A
C1332     Br1333   1.872       .  S
C1337      C1338   1.444       .  A
C1337      C1342   1.457   1_554  A
C1337     Br1344   1.885       .  S
C1338      C1339   1.433       .  A
C1339      C1340   1.433   1_554  A
C1339     Br1346   1.894       .  S
C1340      C1341   1.411       .  A
C1340     Br1345   1.918       .  S
C1341      C1342   1.427       .  A
C1342     Br1343   1.918       .  S
C1347      C1348   1.448       .  A
C1347      C1352   1.435       .  A
C1347     Br1354   1.899       .  S
C1348      C1349   1.391       .  A
C1349      C1350   1.395       .  A
C1349     Br1356   1.868       .  S
C1350      C1351   1.395       .  A
C1350     Br1355   1.911   1_545  S
C1351      C1352   1.404       .  A
C1352     Br1353   1.926       .  S
C1357      C1358   1.432       .  A
C1357      C1362   1.418       .  A
C1357     Br1364   1.936       .  S
C1358      C1359   1.420       .  A
C1359      C1360   1.406       .  A
C1359     Br1366   1.903       .  S
C1360      C1361   1.403       .  A
C1360     Br1365   1.931       .  S
C1361      C1362   1.401       .  A
C1362     Br1363   1.922       .  S
C1367      C1368   1.408       .  A
C1367      C1372   1.427       .  A
C1367     Br1374   1.920       .  S
C1368      C1369   1.400       .  A
C1369      C1370   1.421       .  A
C1369     Br1376   1.925       .  S
C1370      C1371   1.415       .  A
C1370     Br1375   1.919       .  S
C1371      C1372   1.425       .  A
C1372     Br1373   1.921       .  S
C1377      C1378   1.425       .  A
C1377      C1382   1.421       .  A
C1377     Br1384   1.936       .  S
C1378      C1379   1.454       .  A
C1379      C1380   1.429       .  A
C1379     Br1386   1.940       .  S
C1380      C1381   1.402       .  A
C1380     Br1385   1.937       .  S
C1381      C1382   1.415       .  A
C1382     Br1383   1.928       .  S
C1387      C1388   1.437       .  A
C1387      C1392   1.452   1_545  A
C1387     Br1394   1.893       .  S
C1388      C1389   1.453   1_545  A
C1389      C1390   1.459       .  A
C1389     Br1396   1.894   1_565  S
C1390      C1391   1.420       .  A
C1390     Br1395   1.925       .  S
C1391      C1392   1.425       .  A
C1392     Br1393   1.934       .  S
C1397      C1398   1.408       .  A
C1397      C1402   1.397       .  A
C1397     Br1404   1.911       .  S
C1398      C1399   1.467       .  A
C1399      C1400   1.435       .  A
C1399     Br1406   1.925       .  S
C1400      C1401   1.405       .  A
C1400     Br1405   1.939       .  S
C1401      C1402   1.426       .  A
C1402     Br1403   1.895       .  S
C1407      C1408   1.434       .  A
C1407      C1412   1.438       .  A
C1407     Br1414   1.904       .  S
C1408      C1409   1.408       .  A
C1409      C1410   1.414       .  A
C1409     Br1416   1.913       .  S
C1410      C1411   1.433       .  A
C1410     Br1415   1.928       .  S
C1411      C1412   1.411       .  A
C1412     Br1413   1.926       .  S
C1417      C1418   1.405       .  A
C1417      C1422   1.439       .  A
C1417     Br1424   1.919       .  S
C1418      C1419   1.394       .  A
C1419      C1420   1.420       .  A
C1419     Br1426   1.899       .  S
C1420      C1421   1.429       .  A
C1420     Br1425   1.883       .  S
C1421      C1422   1.441       .  A
C1422     Br1423   1.926       .  S
C1427      C1428   1.410       .  A
C1427      C1432   1.443       .  A
C1427     Br1434   1.928       .  S
C1428      C1429   1.434       .  A
C1429      C1430   1.405       .  A
C1429     Br1436   1.920   1_554  S
C1430      C1431   1.392       .  A
C1430     Br1435   1.930       .  S
C1431      C1432   1.448       .  A
C1432     Br1433   1.910       .  S
C1437      C1438   1.428   1_565  A
C1437      C1442   1.442       .  A
C1437     Br1444   1.905   1_565  S
C1438      C1439   1.437   1_545  A
C1439      C1440   1.449       .  A
C1439     Br1446   1.886   1_565  S
C1440      C1441   1.414       .  A
C1440     Br1445   1.922       .  S
C1441      C1442   1.444       .  A
C1442     Br1443   1.923       .  S
C1447      C1448   1.456       .  A
C1447      C1452   1.481   1_556  A
C1447     Br1454   1.914       .  S
C1448      C1449   1.423       .  A
C1449      C1450   1.461   1_556  A
C1449     Br1456   1.906       .  S
C1450      C1451   1.425       .  A
C1450     Br1455   1.916       .  S
C1451      C1452   1.444       .  A
C1452     Br1453   1.921       .  S
C1457      C1458   1.447       .  A
C1457      C1462   1.440       .  A
C1457     Br1464   1.896       .  S
C1458      C1459   1.423       .  A
C1459      C1460   1.399       .  A
C1459     Br1466   1.915       .  S
C1460      C1461   1.408       .  A
C1460     Br1465   1.930       .  S
C1461      C1462   1.406       .  A
C1462     Br1463   1.932       .  S
C1467      C1468   1.398       .  A
C1467      C1472   1.411       .  A
C1467     Br1474   1.919       .  S
C1468      C1469   1.435       .  A
C1469      C1470   1.429       .  A
C1469     Br1476   1.900       .  S
C1470      C1471   1.405       .  A
C1470     Br1475   1.933       .  S
C1471      C1472   1.434       .  A
C1472     Br1473   1.909       .  S
C1477      C1478   1.442       .  A
C1477      C1482   1.415       .  A
C1477     Br1484   1.920       .  S
C1478      C1479   1.400       .  A
C1479      C1480   1.435       .  A
C1479     Br1486   1.937       .  S
C1480      C1481   1.447       .  A
C1480     Br1485   1.890       .  S
C1481      C1482   1.397       .  A
C1482     Br1483   1.914       .  S
C1487      C1488   1.440       .  A
C1487      C1492   1.439       .  A
C1487     Br1494   1.900       .  S
C1488      C1489   1.397       .  A
C1489      C1490   1.412       .  A
C1489     Br1496   1.901       .  S
C1490      C1491   1.434       .  A
C1490     Br1495   1.918       .  S
C1491      C1492   1.409       .  A
C1492     Br1493   1.931       .  S
C1497      C1498   1.416       .  A
C1497      C1502   1.390       .  A
C1497     Br1504   1.930       .  S
C1498      C1499   1.418       .  A
C1499      C1500   1.441       .  A
C1499     Br1506   1.930       .  S
C1500      C1501   1.437       .  A
C1500     Br1505   1.904       .  S
C1501      C1502   1.417       .  A
C1502     Br1503   1.963       .  S
C1507      C1508   1.429       .  A
C1507      C1512   1.425       .  A
C1507     Br1514   1.930       .  S
C1508      C1509   1.397       .  A
C1509      C1510   1.406       .  A
C1509     Br1516   1.945       .  S
C1510      C1511   1.431       .  A
C1510     Br1515   1.894       .  S
C1511      C1512   1.411       .  A
C1512     Br1513   1.929       .  S
C1517      C1518   1.405       .  A
C1517      C1522   1.434       .  A
C1517     Br1524   1.921       .  S
C1518      C1519   1.405       .  A
C1519      C1520   1.411       .  A
C1519     Br1526   1.909       .  S
C1520      C1521   1.411       .  A
C1520     Br1525   1.893       .  S
C1521      C1522   1.437       .  A
C1522     Br1523   1.888       .  S
C1527      C1528   1.396       .  A
C1527      C1532   1.399       .  A
C1527     Br1534   1.891       .  S
C1528      C1529   1.441       .  A
C1529      C1530   1.436       .  A
C1529     Br1536   1.893       .  S
C1530      C1531   1.407       .  A
C1530     Br1535   1.929       .  S
C1531      C1532   1.403       .  A
C1532     Br1533   1.914   1_545  S
C1537      C1538   1.437   1_565  A
C1537      C1542   1.461       .  A
C1537     Br1544   1.919   1_565  S
C1538      C1539   1.458   1_545  A
C1539      C1540   1.483       .  A
C1539     Br1546   1.908   1_565  S
C1540      C1541   1.439       .  A
C1540     Br1545   1.918       .  S
C1541      C1542   1.438       .  A
C1542     Br1543   1.900       .  S
C1547      C1548   1.406       .  A
C1547      C1552   1.443       .  A
C1547     Br1554   1.927       .  S
C1548      C1549   1.404       .  A
C1549      C1550   1.395       .  A
C1549     Br1556   1.901   1_545  S
C1550      C1551   1.399       .  A
C1550     Br1555   1.902       .  S
C1551      C1552   1.451       .  A
C1552     Br1553   1.894       .  S
C1557      C1558   1.397       .  A
C1557      C1562   1.410       .  A
C1557     Br1564   1.927       .  S
C1558      C1559   1.432       .  A
C1559      C1560   1.430       .  A
C1559     Br1566   1.932       .  S
C1560      C1561   1.411       .  A
C1560     Br1565   1.926       .  S
C1561      C1562   1.444       .  A
C1562     Br1563   1.932       .  S
C1567      C1568   1.412       .  A
C1567      C1572   1.402       .  A
C1567     Br1574   1.919       .  S
C1568      C1569   1.406       .  A
C1569      C1570   1.438       .  A
C1569     Br1576   1.931       .  S
C1570      C1571   1.448       .  A
C1570     Br1575   1.890       .  S
C1571      C1572   1.414       .  A
C1572     Br1573   1.917       .  S
C1577      C1578   1.399       .  A
C1577      C1582   1.409       .  A
C1577     Br1584   1.925       .  S
C1578      C1579   1.440       .  A
C1579      C1580   1.433       .  A
C1579     Br1586   1.933       .  S
C1580      C1581   1.410       .  A
C1580     Br1585   1.925       .  S
C1581      C1582   1.439       .  A
C1582     Br1583   1.935   1_545  S
C1587      C1588   1.438       .  A
C1587      C1592   1.461   1_455  A
C1587     Br1594   1.912       .  S
C1588      C1589   1.442       .  A
C1589      C1590   1.455   1_455  A
C1589     Br1596   1.922       .  S
C1590      C1591   1.431       .  A
C1590     Br1595   1.918       .  S
C1591      C1592   1.436       .  A
C1592     Br1593   1.914       .  S
C1597      C1598   1.412       .  A
C1597      C1602   1.436       .  A
C1597     Br1604   1.924       .  S
C1598      C1599   1.436       .  A
C1599      C1600   1.402       .  A
C1599     Br1606   1.916       .  S
C1600      C1601   1.390       .  A
C1600     Br1605   1.913       .  S
C1601      C1602   1.434       .  A
C1602     Br1603   1.926       .  S
C1607      C1608   1.442       .  A
C1607      C1612   1.441       .  A
C1607     Br1614   1.904       .  S
C1608      C1609   1.421       .  A
C1609      C1610   1.420       .  A
C1609     Br1616   1.907       .  S
C1610      C1611   1.432       .  A
C1610     Br1615   1.938       .  S
C1611      C1612   1.409       .  A
C1612     Br1613   1.929       .  S
C1617      C1618   1.452       .  A
C1617      C1622   1.448       .  A
C1617     Br1624   1.905       .  S
C1618      C1619   1.406       .  A
C1619      C1620   1.399       .  A
C1619     Br1626   1.876       .  S
C1620      C1621   1.397       .  A
C1620     Br1625   1.907       .  S
C1621      C1622   1.412       .  A
C1622     Br1623   1.923       .  S
C1627      C1628   1.444       .  A
C1627      C1632   1.436       .  A
C1627     Br1634   1.916       .  S
C1628      C1629   1.408       .  A
C1629      C1630   1.412       .  A
C1629     Br1636   1.915       .  S
C1630      C1631   1.405       .  A
C1630     Br1635   1.878       .  S
C1631      C1632   1.404       .  A
C1632     Br1633   1.923       .  S
C1637      C1638   1.422       .  A
C1637      C1642   1.440       .  A
C1637     Br1644   1.887       .  S
C1638      C1639   1.440       .  A
C1639      C1640   1.465   1_565  A
C1639     Br1646   1.909       .  S
C1640      C1641   1.440       .  A
C1640     Br1645   1.913       .  S
C1641      C1642   1.424   1_545  A
C1642     Br1643   1.905   1_565  S
C1647      C1648   1.417       .  A
C1647      C1652   1.442   1_655  A
C1647     Br1654   1.890       .  S
C1648      C1649   1.447       .  A
C1649      C1650   1.486   1_655  A
C1649     Br1656   1.911       .  S
C1650      C1651   1.454       .  A
C1650     Br1655   1.914       .  S
C1651      C1652   1.443       .  A
C1652     Br1653   1.925       .  S
