geometry optimzed in LAMMPS
_audit_creation_date              2020-11-30 
_audit_creation_method            'lammps2cif' 
_symmetry_space_group_name_H-M    'P1' 
_symmetry_Int_Tables_number       1 
_symmetry_cell_setting            triclinic 
loop_ 
_symmetry_equiv_pos_as_xyz 
  x,y,z 
_cell_length_a                    66.03595761 
_cell_length_b                    41.95318031835726 
_cell_length_c                    37.58486865334464 
_cell_angle_alpha                 90.08156028693485 
_cell_angle_beta                  89.95342437724507 
_cell_angle_gamma                 89.71786845958533 
loop_ 
_atom_site_label 
_atom_site_type_symbol 
_atom_site_fract_x 
_atom_site_fract_y 
_atom_site_fract_z 
_atom_site_charge 
N1          N  0.00100960  0.45164038  0.75712465    -0.35700
N2          N  0.03196296  0.00142806  0.76072151    -0.56300
N3          N  0.00068523  0.05024218  0.75851093    -0.35700
N4          N  0.96952121  0.00314828  0.74430631    -0.56300
C5          C  0.01734147  0.43242088  0.75256749     0.27900
C6          C  0.98455463  0.43540169  0.74554928     0.27900
C7          C  0.01745745  0.06860848  0.75791663     0.27900
C8          C  0.98478810  0.06931344  0.75036873     0.27900
C9          C  0.04455358  0.47041290  0.76980906     0.36500
C10         C  0.04320065  0.02666920  0.77125914     0.36500
C11         C  0.95883921  0.47821188  0.75415087     0.36500
C12         C  0.95750562  0.02872050  0.75081879     0.36500
C13         C  0.01123052  0.40372435  0.73782063    -0.21000
C14         C  0.99058510  0.40570555  0.73309990    -0.21000
C15         C  0.01210500  0.09962490  0.74893021    -0.21000
C16         C  0.99150924  0.10007090  0.74430630    -0.21000
C17         C  0.06311261  0.47800122  0.78478503    -0.22100
C18         C  0.06146841  0.01620286  0.78515016    -0.22100
C19         C  0.93961153  0.48890351  0.76319659    -0.22100
C20         C  0.93768504  0.01914765  0.75603019    -0.22100
C21         C  0.03732997  0.43910976  0.76386561    -0.17400
C22         C  0.96416637  0.44601805  0.74817809    -0.17400
C23         C  0.96419638  0.06062497  0.75168220    -0.17400
C24         C  0.03719780  0.05900786  0.76805573    -0.17400
H25         H  0.02067835  0.38337241  0.73132088     0.15500
H26         H  0.98109271  0.38714799  0.72221333     0.15500
H27         H  0.02195269  0.12005498  0.74663425     0.15500
H28         H  0.98243956  0.12084188  0.73788887     0.15500
H29         H  0.07457763  0.46170916  0.79453637     0.13800
H30         H  0.07365334  0.03061319  0.79557198     0.13800
H31         H  0.92626817  0.47467677  0.76808729     0.13800
H32         H  0.92465159  0.03403146  0.76175395     0.13800
H33         H  0.00082648  0.47277801  0.77137876     0.27000
H34         H  0.99972829  0.02729755  0.76881375     0.27000
C35         C  0.14156302  0.24818431  0.75983052    -0.01600
C36         C  0.86115391  0.25345666  0.74823606    -0.01600
C37         C  0.63333104  0.99642983  0.74062772    -0.01600
N38         N  0.49641059  0.30016966  0.74849306    -0.35700
N39         N  0.46613877  0.24882353  0.74519972    -0.56300
N40         N  0.49864494  0.20228963  0.74178987    -0.35700
N41         N  0.52869681  0.25247513  0.74968183    -0.56300
C42         C  0.47913722  0.31623307  0.75650246     0.27900
C43         C  0.51216576  0.31807698  0.75998714     0.27900
C44         C  0.48246298  0.18276611  0.74506584     0.27900
C45         C  0.51548949  0.18448912  0.74759810     0.27900
C46         C  0.45406474  0.27447044  0.73984563     0.36500
C47         C  0.45513501  0.22293688  0.73593523     0.36500
C48         C  0.54009922  0.27918347  0.74840490     0.36500
C49         C  0.54126041  0.22767434  0.74244548     0.36500
C50         C  0.48395741  0.34475758  0.77305256    -0.21000
C51         C  0.50475374  0.34588462  0.77534490    -0.21000
C52         C  0.48908204  0.15225760  0.75320589    -0.21000
C53         C  0.50983990  0.15324599  0.75452767    -0.21000
C54         C  0.43529217  0.26480759  0.72741035    -0.22100
C55         C  0.43600682  0.23220391  0.72478908    -0.22100
C56         C  0.56003773  0.27125383  0.74070273    -0.22100
C57         C  0.56076586  0.23868683  0.73690035    -0.22100
C58         C  0.45918022  0.30629914  0.74818696    -0.17400
C59         C  0.53304660  0.31040225  0.75612560    -0.17400
C60         C  0.53576638  0.19508227  0.74364072    -0.17400
C61         C  0.46200596  0.19100295  0.73828505    -0.17400
H62         H  0.47357093  0.36281892  0.78275393     0.15500
H63         H  0.51338857  0.36498104  0.78724448     0.15500
H64         H  0.47993047  0.13120481  0.75704714     0.15500
H65         H  0.51950044  0.13283961  0.75927901     0.15500
H66         H  0.42240024  0.27970691  0.72084592     0.13800
H67         H  0.42382368  0.21714549  0.71560734     0.13800
H68         H  0.57278362  0.28722680  0.73827865     0.13800
H69         H  0.57421447  0.22469287  0.73133483     0.13800
H70         H  0.49738172  0.27967057  0.73298549     0.27000
H71         H  0.49837621  0.22526693  0.73160129     0.27000
C72         C  0.35786429  0.00090102  0.75175978    -0.01600
O73         O  0.26751649  0.39708143  0.04664810    -0.72100
O74         O  0.23612880  0.35663141  0.96695612    -0.73000
O75         O  0.23389281  0.35462667  0.04174545    -0.61700
O76         O  0.26985597  0.39889605  0.97078383    -0.70100
O77         O  0.29107581  0.35773938  0.97282699    -0.69600
O78         O  0.25471568  0.31291858  0.04169335    -0.60900
O79         O  0.25769468  0.31584665  0.96649535    -0.73400
O80         O  0.28800413  0.35500046  0.04809254    -0.72200
Cu81       Cu  0.25113715  0.37832886  0.00653520     1.04600
Cu82       Cu  0.27361849  0.33398521  0.00730345     1.04300
C83         C  0.28259065  0.38219824  0.06020146     0.94100
C84         C  0.24193800  0.32980975  0.95431338     0.93300
C85         C  0.23844594  0.32650122  0.05224202     0.85400
C86         C  0.28621712  0.38512572  0.96069183     0.91700
N87         N  0.99704658  0.04477260  0.25389898    -0.35700
N88         N  0.96630588  0.49461932  0.26311442    -0.56300
N89         N  0.99800586  0.44700322  0.25309347    -0.35700
N90         N  0.02800489  0.49807302  0.24888505    -0.56300
C91         C  0.98141525  0.06117560  0.26851549     0.27900
C92         C  0.01344422  0.06383810  0.25543819     0.27900
C93         C  0.98216389  0.42855657  0.26283261     0.27900
C94         C  0.01525251  0.43074033  0.26087362     0.27900
C95         C  0.95547659  0.01891352  0.26452484     0.36500
C96         C  0.95452626  0.46875256  0.25793348     0.36500
C97         C  0.03950618  0.02481429  0.23611915     0.36500
C98         C  0.03970269  0.47231758  0.24196327     0.36500
C99         C  0.98801684  0.09086737  0.27971082    -0.21000
C100        C  0.00820601  0.09265140  0.27119920    -0.21000
C101        C  0.98935159  0.40011962  0.27674827    -0.21000
C102        C  0.01022005  0.40165338  0.27596217    -0.21000
C103        C  0.93585201  0.00857582  0.25904350    -0.22100
C104        C  0.93442896  0.47805459  0.25424313    -0.22100
C105        C  0.05771352  0.01585277  0.22055867    -0.22100
C106        C  0.05735308  0.48149690  0.22491789    -0.22100
C107        C  0.96106956  0.05094768  0.26948585    -0.17400
C108        C  0.03273091  0.05653519  0.24132474    -0.17400
C109        C  0.03525239  0.44090932  0.25277655    -0.17400
C110        C  0.96141085  0.43676810  0.25915576    -0.17400
H111        H  0.97916303  0.10951174  0.29229415     0.15500
H112        H  0.01793240  0.11286352  0.27615368     0.15500
H113        H  0.98048237  0.38054887  0.28701522     0.15500
H114        H  0.02045935  0.38327555  0.28527363     0.15500
H115        H  0.92225591  0.02297241  0.25701545     0.13800
H116        H  0.92138826  0.46298244  0.25009015     0.13800
H117        H  0.06873749  0.03095443  0.20770202     0.13800
H118        H  0.06968259  0.46631131  0.21613475     0.13800
H119        H  0.99611707  0.02352623  0.23970903     0.27000
H120        H  0.99696508  0.46814590  0.23877265     0.27000
C121        C  0.13601715  0.24491861  0.23882950    -0.01600
C122        C  0.86185773  0.24442584  0.24047141    -0.01600
C123        C  0.63738120  0.00735670  0.25216602    -0.01600
C124        C  0.36406304  0.01150801  0.25216203    -0.01600
N125        N  0.50076928  0.21319614  0.25098358    -0.35700
N126        N  0.53227176  0.26058604  0.24416572    -0.56300
N127        N  0.50148669  0.31102773  0.25093624    -0.35700
N128        N  0.47066237  0.26311539  0.26268307    -0.56300
C129        C  0.51753408  0.19477308  0.25483690     0.27900
C130        C  0.48481887  0.19586937  0.26246383     0.27900
C131        C  0.51879509  0.32812345  0.25239590     0.27900
C132        C  0.48641018  0.32948668  0.26446402     0.27900
C133        C  0.54322539  0.23425526  0.23581779     0.36500
C134        C  0.54304866  0.28583870  0.23261335     0.36500
C135        C  0.45813901  0.23784932  0.25954889     0.36500
C136        C  0.45875457  0.28942947  0.26196537     0.36500
C137        C  0.51214439  0.16549615  0.26894142    -0.21000
C138        C  0.49153880  0.16621621  0.27385202    -0.21000
C139        C  0.51460927  0.35801046  0.26657318    -0.21000
C140        C  0.49427832  0.35868099  0.27465485    -0.21000
C141        C  0.56113112  0.24280718  0.21926534    -0.22100
C142        C  0.56103851  0.27549733  0.21725862    -0.22100
C143        C  0.43822253  0.24814754  0.25688848    -0.22100
C144        C  0.43860057  0.28078186  0.25850020    -0.22100
C145        C  0.53734090  0.20268773  0.24366101    -0.17400
C146        C  0.46425847  0.20558539  0.26150375    -0.17400
C147        C  0.46563739  0.32107188  0.26629849    -0.17400
C148        C  0.53788426  0.31806807  0.23902556    -0.17400
H149        H  0.52203338  0.14556447  0.27492345     0.15500
H150        H  0.48255882  0.14698904  0.28460020     0.15500
H151        H  0.52500852  0.37749385  0.27069737     0.15500
H152        H  0.48624081  0.37859507  0.28645197     0.15500
H153        H  0.57300628  0.22719688  0.20956434     0.13800
H154        H  0.57300353  0.28999677  0.20621236     0.13800
H155        H  0.42477245  0.23368769  0.25436292     0.13800
H156        H  0.42548987  0.29632462  0.25724538     0.13800
H157        H  0.49986897  0.23470007  0.23740966     0.27000
H158        H  0.49976850  0.28940926  0.23781046     0.27000
O159        O  0.75940250  0.15860745  0.03082984    -0.72100
O160        O  0.72185760  0.12790462  0.95405962    -0.73000
O161        O  0.72123542  0.12840816  0.02986525    -0.61700
O162        O  0.76022841  0.15823919  0.95533893    -0.70100
O163        O  0.77495604  0.11056881  0.95538825    -0.69600
O164        O  0.73591362  0.08068273  0.03041916    -0.60900
O165        O  0.73637249  0.08008683  0.95463437    -0.73400
O166        O  0.77423279  0.11103983  0.03171961    -0.72200
Cu167      Cu  0.74014920  0.14488053  0.99243928     1.04600
Cu168      Cu  0.75593862  0.09392568  0.99300892     1.04300
C169        C  0.77258867  0.13948303  0.04374715     0.94100
C170        C  0.72307316  0.09936852  0.94227199     0.93300
C171        C  0.72256971  0.10015597  0.04226797     0.85400
C172        C  0.77373043  0.13904880  0.94351077     0.91700
O173        O  0.24938045  0.07973365  0.46134962    -0.72100
O174        O  0.21307239  0.12200109  0.53251611    -0.73000
O175        O  0.21776410  0.12616158  0.45781202    -0.61700
O176        O  0.24450302  0.07614916  0.53652415    -0.70100
O177        O  0.26754995  0.11414069  0.54211235    -0.69600
O178        O  0.23973662  0.16542036  0.46519853    -0.60900
O179        O  0.23559116  0.16048066  0.54041160    -0.73400
O180        O  0.27177408  0.11871468  0.46664154    -0.72200
Cu181      Cu  0.23044532  0.09969548  0.49675005     1.04600
Cu182      Cu  0.25448980  0.14105529  0.50381314     1.04300
C183        C  0.26625094  0.09228265  0.45271636     0.94100
C184        C  0.21850512  0.14777557  0.54770636     0.93300
C185        C  0.22426222  0.15385792  0.44946294     0.85400
C186        C  0.26024239  0.08730766  0.55175902     0.91700
O187        O  0.78419692  0.38651355  0.52831383    -0.72100
O188        O  0.74432995  0.42859475  0.46283454    -0.73000
O189        O  0.74696353  0.42087929  0.53727254    -0.61700
O190        O  0.78127534  0.39373629  0.45313327    -0.70100
O191        O  0.76475693  0.34785842  0.45079744    -0.69600
O192        O  0.72984515  0.37566719  0.53250790    -0.60900
O193        O  0.72757347  0.38315068  0.45714692    -0.73400
O194        O  0.76692536  0.34132342  0.52605975    -0.72200
Cu195      Cu  0.76481996  0.40896809  0.49548083     1.04600
Cu196      Cu  0.74667482  0.36042618  0.49144324     1.04300
C197        C  0.78187280  0.35754728  0.53781766     0.94100
C198        C  0.72959852  0.41280771  0.44990477     0.93300
C199        C  0.73277828  0.40244999  0.54775004     0.85400
C200        C  0.77857686  0.36628345  0.43908138     0.91700
C201        C  0.30950333  0.06841070  0.38828365     0.19600
C202        C  0.32103764  0.08487722  0.36296646    -0.18500
C203        C  0.33293824  0.06822834  0.33819995    -0.10800
C204        C  0.33378076  0.03465120  0.33858607     0.21800
C205        C  0.32282635  0.01826761  0.36471291    -0.20100
C206        C  0.31071082  0.03488760  0.38915606    -0.11000
C207        C  0.34663551  0.01637228  0.31303339    -0.15100
C208        C  0.34963964  0.02642817  0.27943851    -0.29000
C209        C  0.29672925  0.08668112  0.41396175    -0.03300
C210        C  0.27921409  0.07513164  0.42682632    -0.39800
H211        H  0.32067235  0.11068580  0.36211737     0.13000
H212        H  0.34176290  0.08171274  0.31922639     0.12600
H213        H  0.32351990  0.99249617  0.36602648     0.12000
H214        H  0.30258162  0.02144092  0.40908326     0.12300
H215        H  0.35128577  0.49219247  0.32280181     0.15000
H216        H  0.34150434  0.04755110  0.27051317     0.13800
H217        H  0.30142454  0.11059779  0.42128904     0.11500
H218        H  0.27387218  0.05207490  0.41776062     0.13500
C219        C  0.43014020  0.39468333  0.26045972     0.19600
C220        C  0.43227703  0.42726033  0.25293590    -0.18500
C221        C  0.41535663  0.44749668  0.25263824    -0.10800
C222        C  0.39591950  0.43531992  0.25899041     0.21800
C223        C  0.39371295  0.40291573  0.26687289    -0.20100
C224        C  0.41067815  0.38280230  0.26806102    -0.11000
C225        C  0.37788358  0.45515578  0.25147241    -0.15100
C226        C  0.37495943  0.48372460  0.26719220    -0.29000
C227        C  0.44798927  0.37314107  0.25661385    -0.03300
C228        C  0.44991379  0.34568203  0.27478506    -0.39800
H229        H  0.44701267  0.43690854  0.24647010     0.13000
H230        H  0.41729134  0.47231492  0.24551964     0.12600
H231        H  0.37878259  0.39300193  0.27103291     0.12000
H232        H  0.40831627  0.35768137  0.27289814     0.12300
H233        H  0.36835884  0.44708013  0.22988077     0.15000
H234        H  0.38485936  0.48969679  0.28929818     0.13800
H235        H  0.45951234  0.37955635  0.23728702     0.11500
H236        H  0.43846414  0.33937092  0.29424799     0.13500
C237        C  0.40482846  0.07842533  0.25978628     0.19600
C238        C  0.41020124  0.09798065  0.28854369    -0.18500
C239        C  0.42373275  0.12308390  0.28401807    -0.10800
C240        C  0.43233994  0.12912338  0.25049151     0.21800
C241        C  0.42737626  0.10908838  0.22184597    -0.20100
C242        C  0.41365555  0.08403346  0.22632619    -0.11000
C243        C  0.44739066  0.15488480  0.24522103    -0.15100
C244        C  0.44822986  0.18105524  0.26594453    -0.29000
C245        C  0.39062609  0.05185373  0.26659575    -0.03300
C246        C  0.37893926  0.03765276  0.24173657    -0.39800
H247        H  0.40388719  0.09380684  0.31473799     0.13000
H248        H  0.42776436  0.13714587  0.30706991     0.12600
H249        H  0.43414027  0.11284943  0.19593220     0.12000
H250        H  0.41036479  0.06882343  0.20382319     0.12300
H251        H  0.45813667  0.15239781  0.22345103     0.15000
H252        H  0.43658287  0.18545837  0.28576371     0.13800
H253        H  0.38886353  0.04458125  0.29417376     0.11500
H254        H  0.37972711  0.04551829  0.21427788     0.13500
C255        C  0.66233485  0.47022501  0.33668785     0.19600
C256        C  0.66394288  0.47784575  0.37291945    -0.18500
C257        C  0.67690473  0.46029922  0.39513944    -0.10800
C258        C  0.68800527  0.43417992  0.38168305     0.21800
C259        C  0.68557386  0.42560642  0.34587879    -0.20100
C260        C  0.67306448  0.44364393  0.32348529    -0.11000
C261        C  0.70214199  0.41557414  0.40453179    -0.15100
C262        C  0.71475659  0.43001500  0.42744096    -0.29000
C263        C  0.64868173  0.48893232  0.31308917    -0.03300
C264        C  0.65405558  0.49615006  0.27945283    -0.39800
H265        H  0.65494339  0.99828856  0.38464047     0.13000
H266        H  0.67810822  0.46693365  0.42290681     0.12600
H267        H  0.69371360  0.40531759  0.33504236     0.12000
H268        H  0.67155530  0.43654732  0.29589866     0.12300
H269        H  0.70325579  0.38996252  0.40057687     0.15000
H270        H  0.71477684  0.45588822  0.42892487     0.13800
H271        H  0.63321771  0.99623438  0.32446740     0.11500
H272        H  0.66950708  0.49083512  0.27119923     0.13500
C273        C  0.67470833  0.03831503  0.17957652     0.19600
C274        C  0.68437456  0.06783346  0.17620795    -0.18500
C275        C  0.69498125  0.07547079  0.14532494    -0.10800
C276        C  0.69633248  0.05355169  0.11710782     0.21800
C277        C  0.68721441  0.02357459  0.12078748    -0.20100
C278        C  0.67632074  0.01604164  0.15166306    -0.11000
C279        C  0.70808107  0.06115540  0.08458333    -0.15100
C280        C  0.70900646  0.09097506  0.07160256    -0.29000
C281        C  0.66379857  0.03167376  0.21320823    -0.03300
C282        C  0.64846364  0.01078215  0.21663914    -0.39800
H283        H  0.68365423  0.08517502  0.19757090     0.13000
H284        H  0.70247857  0.09832252  0.14392487     0.12600
H285        H  0.68842302  0.00608051  0.09965788     0.12000
H286        H  0.66957454  0.99267991  0.15383075     0.12300
H287        H  0.71611401  0.04191908  0.07117265     0.15000
H288        H  0.69988603  0.10975588  0.08357333     0.13800
H289        H  0.66785665  0.04601247  0.23623517     0.11500
H290        H  0.64341468  0.99710568  0.19379693     0.13500
C291        C  0.60499363  0.08581755  0.24342152     0.19600
C292        C  0.59318618  0.09707854  0.21495987    -0.18500
C293        C  0.58221762  0.12549533  0.21771233    -0.10800
C294        C  0.58259291  0.14348753  0.24926163     0.21800
C295        C  0.59509981  0.13312086  0.27727940    -0.20100
C296        C  0.60612922  0.10444824  0.27455219    -0.11000
C297        C  0.56974580  0.17261603  0.25358582    -0.15100
C298        C  0.55165040  0.17563734  0.23728156    -0.29000
C299        C  0.61513891  0.05421723  0.23895328    -0.03300
C300        C  0.62814457  0.03988089  0.26182131    -0.39800
H301        H  0.59222541  0.08359176  0.19041467     0.13000
H302        H  0.57341297  0.13324955  0.19501934     0.12600
H303        H  0.59585446  0.14674250  0.30173909     0.12000
H304        H  0.61510400  0.09681941  0.29704124     0.12300
H305        H  0.57447415  0.19082809  0.27237080     0.15000
H306        H  0.54591510  0.15599605  0.22145079     0.13800
H307        H  0.61169375  0.04152051  0.21445430     0.11500
H308        H  0.63248748  0.05142629  0.28646957     0.13500
C309        C  0.60992601  0.42687160  0.24508218     0.19600
C310        C  0.60850449  0.40150168  0.22091444    -0.18500
C311        C  0.59325791  0.37865750  0.22471240    -0.10800
C312        C  0.57951374  0.38055599  0.25330299     0.21800
C313        C  0.58140059  0.40534570  0.27804303    -0.20100
C314        C  0.59634181  0.42842714  0.27388021    -0.11000
C315        C  0.56349948  0.35654190  0.25893137    -0.15100
C316        C  0.55368405  0.34229980  0.23208361    -0.29000
C317        C  0.62604462  0.45100840  0.24098188    -0.03300
C318        C  0.62247341  0.48191145  0.24832688    -0.39800
H319        H  0.61905459  0.39958359  0.19892365     0.13000
H320        H  0.59251173  0.35924008  0.20577130     0.12600
H321        H  0.57116413  0.40698356  0.30052423     0.12000
H322        H  0.59750037  0.44717680  0.29359690     0.12300
H323        H  0.55886594  0.35150872  0.28611155     0.15000
H324        H  0.55774283  0.34719236  0.20463871     0.13800
H325        H  0.64104970  0.44332238  0.23263360     0.11500
H326        H  0.60705526  0.48909035  0.25486067     0.13500
C327        C  0.82651829  0.28985540  0.30819012     0.19600
C328        C  0.81929051  0.32140387  0.30876895    -0.18500
C329        C  0.80877620  0.33335889  0.33826355    -0.10800
C330        C  0.80503964  0.31384948  0.36789497     0.21800
C331        C  0.81199786  0.28213033  0.36718464    -0.20100
C332        C  0.82273489  0.27023967  0.33777862    -0.11000
C333        C  0.79281928  0.32517454  0.39878727    -0.15100
C334        C  0.79148659  0.35598792  0.40890914    -0.29000
C335        C  0.83721994  0.27845289  0.27564140    -0.03300
C336        C  0.85020646  0.25348379  0.27437711    -0.39800
H337        H  0.82176270  0.33692685  0.28618026     0.13000
H338        H  0.80311951  0.35758632  0.33729423     0.12600
H339        H  0.80903441  0.26644152  0.38943816     0.12000
H340        H  0.82753906  0.24556537  0.33805206     0.12300
H341        H  0.78494713  0.30723839  0.41431277     0.15000
H342        H  0.80040682  0.37400706  0.39548927     0.13800
H343        H  0.83447337  0.29188971  0.25149519     0.11500
H344        H  0.85269123  0.23937857  0.29814743     0.13500
C345        C  0.82026573  0.21183726  0.17662302     0.19600
C346        C  0.81225518  0.18089076  0.17543282    -0.18500
C347        C  0.80155231  0.17023758  0.14566649    -0.10800
C348        C  0.79836044  0.19052483  0.11645722     0.21800
C349        C  0.80580267  0.22183865  0.11807313    -0.20100
C350        C  0.81683606  0.23236242  0.14770428    -0.11000
C351        C  0.78640133  0.18020052  0.08495408    -0.15100
C352        C  0.78569418  0.14972295  0.07355456    -0.29000
C353        C  0.83206756  0.22129203  0.20856775    -0.03300
C354        C  0.84744055  0.24251652  0.20862290    -0.39800
H355        H  0.81449632  0.16469181  0.19752856     0.13000
H356        H  0.79545956  0.14633829  0.14593686     0.12600
H357        H  0.80320746  0.23811947  0.09618858     0.12000
H358        H  0.82238461  0.25658139  0.14809491     0.12300
H359        H  0.77818513  0.19845160  0.07031667     0.15000
H360        H  0.79485724  0.13159799  0.08651740     0.13800
H361        H  0.82969407  0.20721902  0.23248217     0.11500
H362        H  0.85075915  0.25629504  0.18491829     0.13500
C363        C  0.17041966  0.20336205  0.30992134     0.19600
C364        C  0.17414549  0.22186613  0.34048575    -0.18500
C365        C  0.18421257  0.20833917  0.36996324    -0.10800
C366        C  0.19026793  0.17605109  0.36936916     0.21800
C367        C  0.18630165  0.15784707  0.33896386    -0.20100
C368        C  0.17681089  0.17140566  0.30952295    -0.11000
C369        C  0.19980470  0.15962355  0.40017106    -0.15100
C370        C  0.21391258  0.17275478  0.42136650    -0.29000
C371        C  0.16073599  0.21578350  0.27699854    -0.03300
C372        C  0.14684782  0.23958566  0.27453399    -0.39800
H373        H  0.16960653  0.24667657  0.34141456     0.13000
H374        H  0.18687173  0.22282680  0.39333968     0.12600
H375        H  0.19074401  0.13296534  0.33785232     0.12000
H376        H  0.17421976  0.15660628  0.28632862     0.12300
H377        H  0.19628865  0.13451834  0.40350749     0.15000
H378        H  0.21860652  0.19721665  0.41699032     0.13800
H379        H  0.16399414  0.20227607  0.25290893     0.11500
H380        H  0.14247152  0.25325782  0.29787254     0.13500
C381        C  0.10557279  0.32551017  0.24447857     0.19600
C382        C  0.10500160  0.35191203  0.26738589    -0.18500
C383        C  0.08851645  0.37317880  0.26689717    -0.10800
C384        C  0.07233344  0.36879253  0.24286151     0.21800
C385        C  0.07328440  0.34287898  0.21925751    -0.20100
C386        C  0.08969566  0.32167542  0.21981339    -0.11000
C387        C  0.05410037  0.39009049  0.24155904    -0.15100
C388        C  0.05293109  0.41888979  0.25730148    -0.29000
C389        C  0.12261745  0.30200746  0.24688273    -0.03300
C390        C  0.11959120  0.27085917  0.24025710    -0.39800
H391        H  0.11706890  0.35558036  0.28643439     0.13000
H392        H  0.08844766  0.39246380  0.28595971     0.12600
H393        H  0.06124579  0.33898669  0.20019107     0.12000
H394        H  0.08992129  0.30235512  0.20070177     0.12300
H395        H  0.04130768  0.38232524  0.22561412     0.15000
H396        H  0.06601556  0.42851678  0.27089173     0.13800
H397        H  0.13752724  0.31009324  0.25492837     0.11500
H398        H  0.10422384  0.26364628  0.23395482     0.13500
C399        C  0.07641424  0.11672134  0.24204427     0.19600
C400        C  0.09705810  0.11645842  0.23316074    -0.18500
C401        C  0.10818596  0.14480237  0.23350344    -0.10800
C402        C  0.09883597  0.17348350  0.24381140     0.21800
C403        C  0.07818674  0.17370606  0.25243788    -0.20100
C404        C  0.06699533  0.14567124  0.25120902    -0.11000
C405        C  0.11051539  0.20270156  0.25035510    -0.15100
C406        C  0.12551023  0.21360268  0.22930294    -0.29000
C407        C  0.06516800  0.08647350  0.24460322    -0.03300
C408        C  0.04599276  0.08412555  0.23309630    -0.39800
H409        H  0.10459100  0.09425947  0.22644616     0.13000
H410        H  0.12422453  0.14403644  0.22753526     0.12600
H411        H  0.07081163  0.19556163  0.26094607     0.12000
H412        H  0.05120910  0.14640395  0.25902082     0.12300
H413        H  0.10584960  0.21700861  0.27311243     0.15000
H414        H  0.12993718  0.20036241  0.20564242     0.13800
H415        H  0.07251827  0.06644095  0.25760989     0.11500
H416        H  0.03891434  0.10473086  0.22064111     0.13500
C417        C  0.89839712  0.17517519  0.26566620     0.19600
C418        C  0.90476983  0.15827526  0.29584690    -0.18500
C419        C  0.91864424  0.13304499  0.29257633    -0.10800
C420        C  0.92665718  0.12484570  0.25903928     0.21800
C421        C  0.92032950  0.14189422  0.22899691    -0.20100
C422        C  0.90625700  0.16662016  0.23217007    -0.11000
C423        C  0.94266962  0.10032342  0.25455910    -0.15100
C424        C  0.94475458  0.07486934  0.27588858    -0.29000
C425        C  0.88517197  0.20364513  0.26945642    -0.03300
C426        C  0.87155454  0.21136593  0.24422657    -0.39800
H427        H  0.89918557  0.16485763  0.32196030     0.13000
H428        H  0.92363576  0.12086848  0.31639313     0.12600
H429        H  0.92650407  0.13631380  0.20299132     0.12000
H430        H  0.90217805  0.17988609  0.20852440     0.12300
H431        H  0.95286607  0.10271475  0.23198512     0.15000
H432        H  0.93366888  0.07017406  0.29655540     0.13800
H433        H  0.88781687  0.21972889  0.29162094     0.11500
H434        H  0.86866701  0.19384001  0.22347823     0.13500
C435        C  0.92766371  0.36509495  0.23326127     0.19600
C436        C  0.93081774  0.33378462  0.22118697    -0.18500
C437        C  0.91464189  0.31232035  0.21883929    -0.10800
C438        C  0.89482825  0.32187956  0.22821632     0.21800
C439        C  0.89156515  0.35371187  0.23835393    -0.20100
C440        C  0.90773703  0.37505287  0.24094460    -0.11000
C441        C  0.87726311  0.29950162  0.22850466    -0.15100
C442        C  0.87931049  0.26786187  0.23389111    -0.29000
C443        C  0.94519545  0.38724482  0.23630409    -0.03300
C444        C  0.94564338  0.41140675  0.25994852    -0.39800
H445        H  0.94590915  0.32574780  0.21411034     0.13000
H446        H  0.91776612  0.28841820  0.20946398     0.12600
H447        H  0.87646366  0.36196908  0.24504608     0.12000
H448        H  0.90452914  0.39940363  0.24871438     0.12300
H449        H  0.86226924  0.30988813  0.22698558     0.15000
H450        H  0.89459501  0.25837739  0.23566697     0.13800
H451        H  0.95797945  0.38379258  0.21845245     0.11500
H452        H  0.93308840  0.41466072  0.27827274     0.13500
C453        C  0.19118666  0.30103166  0.10543399     0.19600
C454        C  0.17035164  0.30655799  0.10104526    -0.18500
C455        C  0.15624445  0.29205122  0.12349392    -0.10800
C456        C  0.16267764  0.27214536  0.15124503     0.21800
C457        C  0.18351888  0.26569912  0.15495457    -0.20100
C458        C  0.19762780  0.28015272  0.13247996    -0.11000
C459        C  0.14738633  0.25961985  0.17664850    -0.15100
C460        C  0.15181159  0.25391069  0.21102374    -0.29000
C461        C  0.20563676  0.31848928  0.08229040    -0.03300
C462        C  0.22484237  0.30900438  0.07637293    -0.39800
H463        H  0.16496899  0.32245576  0.08038618     0.13000
H464        H  0.14029051  0.29722972  0.11989768     0.12600
H465        H  0.18903901  0.24969844  0.17534569     0.12000
H466        H  0.21352342  0.27553550  0.13716002     0.12300
H467        H  0.13175327  0.25778038  0.16789749     0.15000
H468        H  0.16721376  0.25766662  0.22016502     0.13800
H469        H  0.19996543  0.33948780  0.06853767     0.11500
H470        H  0.23053124  0.28698581  0.08777040     0.13500
C471        C  0.32287215  0.46492453  0.19218321     0.19600
C472        C  0.31713335  0.43278300  0.19192909    -0.18500
C473        C  0.30700093  0.41986455  0.16266137    -0.10800
C474        C  0.30211268  0.43903926  0.13318967     0.21800
C475        C  0.30716419  0.47149594  0.13401295    -0.20100
C476        C  0.31761735  0.48431320  0.16308020    -0.11000
C477        C  0.29117039  0.42595405  0.10192014    -0.15100
C478        C  0.29381676  0.39577496  0.09057546    -0.29000
C479        C  0.33409344  0.47742990  0.22338306    -0.03300
C480        C  0.34857938  0.49986999  0.22077556    -0.39800
H481        H  0.32076640  0.41749849  0.21426537     0.13000
H482        H  0.30273178  0.39499957  0.16341810     0.12600
H483        H  0.30323311  0.48686357  0.11190835     0.12000
H484        H  0.32131258  0.50941802  0.16294150     0.12300
H485        H  0.28124402  0.44187982  0.08716022     0.15000
H486        H  0.30480697  0.38044621  0.10366901     0.13800
H487        H  0.33169475  0.46592677  0.24893569     0.11500
H488        H  0.35164631  0.51035954  0.19493934     0.13500
C489        C  0.33553939  0.46823870  0.83901932     0.19600
C490        C  0.34345097  0.45215901  0.86865382    -0.18500
C491        C  0.33059472  0.43902222  0.89427692    -0.10800
C492        C  0.30943189  0.44176101  0.89089537     0.21800
C493        C  0.30149694  0.45902300  0.86213069    -0.20100
C494        C  0.31435853  0.47209115  0.83640352    -0.11000
C495        C  0.29536457  0.42724459  0.91717310    -0.15100
C496        C  0.30002217  0.40041395  0.93502149    -0.29000
C497        C  0.34985688  0.48085062  0.81178779    -0.03300
C498        C  0.34442570  0.48697068  0.77793445    -0.39800
H499        H  0.35966949  0.44938776  0.87178326     0.13000
H500        H  0.33730672  0.42698175  0.91684228     0.12600
H501        H  0.28527408  0.46203739  0.85929106     0.12000
H502        H  0.30758613  0.48542693  0.81485192     0.12300
H503        H  0.28046173  0.43794454  0.92055150     0.15000
H504        H  0.31431541  0.38836028  0.92991353     0.13800
H505        H  0.36563203  0.48381415  0.81926338     0.11500
H506        H  0.32895305  0.48236729  0.76980586     0.13500
C507        C  0.29849848  0.05722481  0.62190242     0.19600
C508        C  0.31913956  0.04916631  0.62033874    -0.18500
C509        C  0.32908699  0.03663613  0.65013002    -0.10800
C510        C  0.31864330  0.03268802  0.68239155     0.21800
C511        C  0.29793803  0.04041515  0.68388309    -0.20100
C512        C  0.28786270  0.05217727  0.65381331    -0.11000
C513        C  0.32948953  0.02458990  0.71575683    -0.15100
C514        C  0.34557449  0.00462264  0.71748012    -0.29000
C515        C  0.28898826  0.07371693  0.59114622    -0.03300
C516        C  0.26962678  0.06921688  0.58131017    -0.39800
H517        H  0.32768553  0.05319818  0.59616391     0.13000
H518        H  0.34516492  0.03169739  0.64842014     0.12600
H519        H  0.28966193  0.03803406  0.70863400     0.12000
H520        H  0.27204644  0.05881027  0.65607038     0.12300
H521        H  0.32424135  0.03613802  0.73999948     0.15000
H522        H  0.35036279  0.99183465  0.69372876     0.13800
H523        H  0.29844258  0.08959928  0.57556656     0.11500
H524        H  0.26051383  0.05147914  0.59485966     0.13500
C525        C  0.42330843  0.37775422  0.73003997     0.19600
C526        C  0.42591408  0.40947118  0.71928775    -0.18500
C527        C  0.40958760  0.43082538  0.71945578    -0.10800
C528        C  0.39022145  0.42085401  0.73036345     0.21800
C529        C  0.38730278  0.38869835  0.73886939    -0.20100
C530        C  0.40365655  0.36733010  0.73882253    -0.11000
C531        C  0.37305261  0.44371652  0.73387083    -0.15100
C532        C  0.37606517  0.47398899  0.74438500    -0.29000
C533        C  0.44126423  0.35612759  0.73083650    -0.03300
C534        C  0.44209954  0.32949933  0.75069397    -0.39800
H535        H  0.44072278  0.41792908  0.71138235     0.13000
H536        H  0.41219275  0.45517099  0.71119290     0.12600
H537        H  0.37244262  0.38027937  0.74651684     0.12000
H538        H  0.40074923  0.34272511  0.74552782     0.12300
H539        H  0.35769538  0.43523064  0.72993842     0.15000
H540        H  0.39144419  0.48127913  0.75055211     0.13800
H541        H  0.45433450  0.36238123  0.71473029     0.11500
H542        H  0.42934611  0.32281138  0.76722138     0.13500
C543        C  0.41737820  0.13110805  0.74615264     0.19600
C544        C  0.40490020  0.12157396  0.77450535    -0.18500
C545        C  0.39267609  0.09438949  0.77171575    -0.10800
C546        C  0.39251955  0.07626582  0.74017387     0.21800
C547        C  0.40462133  0.08634386  0.71155179    -0.20100
C548        C  0.41682075  0.11338727  0.71436564    -0.11000
C549        C  0.38066261  0.04632084  0.73564970    -0.15100
C550        C  0.36788850  0.03307233  0.75967173    -0.29000
C551        C  0.43066467  0.15957991  0.75057787    -0.03300
C552        C  0.44767847  0.16419430  0.73142120    -0.39800
H553        H  0.40488451  0.13490649  0.79920318     0.13000
H554        H  0.38365844  0.08764221  0.79445514     0.12600
H555        H  0.40473618  0.07309854  0.68677747     0.12000
H556        H  0.42561992  0.12038682  0.69141539     0.12300
H557        H  0.38293119  0.03362005  0.71069832     0.15000
H558        H  0.36477873  0.04481267  0.78480740     0.13800
H559        H  0.42703904  0.17636999  0.77171758     0.11500
H560        H  0.45260471  0.14617060  0.71254245     0.13500
C561        C  0.69367799  0.05035556  0.87190050     0.19600
C562        C  0.68476278  0.02000661  0.87014525    -0.18500
C563        C  0.67303231  0.01104382  0.84059699    -0.10800
C564        C  0.67024988  0.03226215  0.81196121     0.21800
C565        C  0.67932395  0.06241568  0.81379972    -0.20100
C566        C  0.69086040  0.07136818  0.84322133    -0.11000
C567        C  0.65845721  0.02455006  0.77925670    -0.15100
C568        C  0.64605386  0.99934136  0.77464454    -0.29000
C569        C  0.70673260  0.05913463  0.90276277    -0.03300
C570        C  0.70911732  0.08957298  0.91352162    -0.39800
H571        H  0.68688348  0.00320628  0.89169703     0.13000
H572        H  0.66653382  0.98745377  0.84018283     0.12600
H573        H  0.67760580  0.07921723  0.79213132     0.12000
H574        H  0.69800014  0.09451786  0.84287999     0.12300
H575        H  0.65930217  0.04175370  0.75769098     0.15000
H576        H  0.64445695  0.98163850  0.79540543     0.13800
H577        H  0.71438978  0.04011748  0.91711247     0.11500
H578        H  0.70033706  0.10839817  0.90100968     0.13500
C579        C  0.67656282  0.46643700  0.67540355     0.19600
C580        C  0.68606090  0.43643450  0.67452950    -0.18500
C581        C  0.69926652  0.42819308  0.64696906    -0.10800
C582        C  0.70335243  0.44984565  0.61940399     0.21800
C583        C  0.69432971  0.48022211  0.62066035    -0.20100
C584        C  0.68098314  0.48847398  0.64827790    -0.11000
C585        C  0.71726923  0.44145889  0.58960815    -0.15100
C586        C  0.71949531  0.41133665  0.57779352    -0.29000
C587        C  0.66254935  0.47332671  0.70551626    -0.03300
C588        C  0.64938562  0.49804745  0.70746295    -0.39800
H589        H  0.68320898  0.41913492  0.69529630     0.13000
H590        H  0.70647443  0.40498736  0.64768352     0.12600
H591        H  0.69746112  0.49749870  0.60000871     0.12000
H592        H  0.67667157  0.00841889  0.65567254     0.12300
H593        H  0.72507623  0.46063907  0.57596453     0.15000
H594        H  0.71043766  0.39243004  0.58927430     0.13800
H595        H  0.66249809  0.45623973  0.72725674     0.11500
H596        H  0.64771834  0.01005906  0.68785403     0.13500
C597        C  0.57145325  0.12333003  0.76351490     0.19600
C598        C  0.57496241  0.10528674  0.79430990    -0.18500
C599        C  0.58699573  0.07785927  0.79324922    -0.10800
C600        C  0.59599055  0.06756220  0.76137707     0.21800
C601        C  0.59268666  0.08566305  0.73034253    -0.20100
C602        C  0.58054645  0.11324750  0.73139377    -0.11000
C603        C  0.60818176  0.03753964  0.76231312    -0.15100
C604        C  0.62042067  0.02668000  0.73609903    -0.29000
C605        C  0.55732538  0.15113598  0.76634668    -0.03300
C606        C  0.55208740  0.17061365  0.73940952    -0.39800
H607        H  0.56812297  0.11219664  0.81938963     0.13000
H608        H  0.58918490  0.06448017  0.81759301     0.12600
H609        H  0.59903099  0.07845933  0.70505655     0.12000
H610        H  0.57814063  0.12604640  0.70683784     0.12300
H611        H  0.60774970  0.02420087  0.78699885     0.15000
H612        H  0.62192214  0.04033415  0.71179459     0.13800
H613        H  0.54993142  0.15500092  0.79187645     0.11500
H614        H  0.55947994  0.16902623  0.71373833     0.13500
C615        C  0.56444191  0.38861273  0.75135873     0.19600
C616        C  0.56868197  0.40986147  0.72354109    -0.18500
C617        C  0.58308703  0.43394601  0.72778592    -0.10800
C618        C  0.59340903  0.43772316  0.76025773     0.21800
C619        C  0.58880499  0.41708264  0.78845713    -0.20100
C620        C  0.57462172  0.39255982  0.78400584    -0.11000
C621        C  0.60832271  0.46392696  0.76531741    -0.15100
C622        C  0.62120018  0.47232555  0.73915740    -0.29000
C623        C  0.54873193  0.36362363  0.74581209    -0.03300
C624        C  0.54860046  0.33551380  0.76314779    -0.39800
H625        H  0.56086182  0.40774022  0.69832718     0.13000
H626        H  0.58582938  0.45006098  0.70584245     0.12600
H627        H  0.59630270  0.41981236  0.81389135     0.12000
H628        H  0.57132938  0.37724813  0.80639191     0.12300
H629        H  0.60885517  0.47596999  0.79084788     0.15000
H630        H  0.62117745  0.45780538  0.71513763     0.13800
H631        H  0.53729892  0.36788807  0.72554917     0.11500
H632        H  0.56094180  0.32958773  0.78105657     0.13500
C633        C  0.80206367  0.19032811  0.87475813     0.19600
C634        C  0.81070800  0.22082916  0.87484708    -0.18500
C635        C  0.82175679  0.23166860  0.84545570    -0.10800
C636        C  0.82414657  0.21220560  0.81516150     0.21800
C637        C  0.81519463  0.18192868  0.81498493    -0.20100
C638        C  0.80435014  0.17102051  0.84442834    -0.11000
C639        C  0.83531375  0.22249623  0.78281283    -0.15100
C640        C  0.84909079  0.24614334  0.78197088    -0.29000
C641        C  0.78954410  0.18003406  0.90544852    -0.03300
C642        C  0.78773246  0.14929591  0.91515488    -0.39800
H643        H  0.80884783  0.23634040  0.89769897     0.13000
H644        H  0.82792486  0.25547133  0.84638966     0.12600
H645        H  0.81656314  0.16660323  0.79187223     0.12000
H646        H  0.79730909  0.14781695  0.84295795     0.12300
H647        H  0.83288068  0.20882995  0.75859627     0.15000
H648        H  0.85245110  0.25944540  0.80601799     0.13800
H649        H  0.78167961  0.19837931  0.92061831     0.11500
H650        H  0.79664600  0.13101395  0.90184362     0.13500
C651        C  0.80914617  0.30234149  0.60517132     0.19600
C652        C  0.80224809  0.28380942  0.63373092    -0.18500
C653        C  0.81576034  0.27261157  0.65963485    -0.10800
C654        C  0.83658803  0.27955636  0.65737883     0.21800
C655        C  0.84360502  0.29657367  0.62773271    -0.20100
C656        C  0.83006709  0.30798756  0.60199327    -0.11000
C657        C  0.85139388  0.26925449  0.68511825    -0.15100
C658        C  0.84615662  0.26388400  0.71929511    -0.29000
C659        C  0.79423229  0.31531579  0.57911260    -0.03300
C660        C  0.79691638  0.34337596  0.56242827    -0.39800
H661        H  0.78627961  0.27850896  0.63639969     0.13000
H662        H  0.80980176  0.25837400  0.68116339     0.12600
H663        H  0.85959384  0.30161528  0.62483198     0.12000
H664        H  0.83603355  0.32112527  0.57958911     0.12300
H665        H  0.86727147  0.26745562  0.67771806     0.15000
H666        H  0.83044510  0.26718832  0.72705270     0.13800
H667        H  0.78011867  0.30253138  0.57536146     0.11500
H668        H  0.81031101  0.35739828  0.56809544     0.13500
C669        C  0.19985062  0.30774719  0.88847371     0.19600
C670        C  0.17941199  0.29914871  0.89182826    -0.18500
C671        C  0.16852668  0.28851149  0.86215871    -0.10800
C672        C  0.17784086  0.28724543  0.82856726     0.21800
C673        C  0.19817048  0.29613293  0.82519603    -0.20100
C674        C  0.20917145  0.30592341  0.85491168    -0.11000
C675        C  0.16635184  0.27935307  0.79609635    -0.15100
C676        C  0.15297202  0.25527999  0.79421783    -0.29000
C677        C  0.21087570  0.32072739  0.91953280    -0.03300
C678        C  0.23067274  0.31490965  0.92493871    -0.39800
H679        H  0.17187140  0.30081931  0.91737532     0.13000
H680        H  0.15269554  0.28245008  0.86518020     0.12600
H681        H  0.20550598  0.29571503  0.79940209     0.12000
H682        H  0.22474815  0.31320036  0.85135307     0.12300
H683        H  0.16971758  0.29293576  0.77221843     0.15000
H684        H  0.15033516  0.24060828  0.81758368     0.13800
H685        H  0.20244700  0.33505093  0.93864693     0.11500
H686        H  0.23875034  0.29828886  0.90780314     0.13500
C687        C  0.19333545  0.20435678  0.61580483     0.19600
C688        C  0.20037550  0.22340937  0.64384149    -0.18500
C689        C  0.18694420  0.23505683  0.66966864    -0.10800
C690        C  0.16614489  0.22782330  0.66782019     0.21800
C691        C  0.15897450  0.21076899  0.63836123    -0.20100
C692        C  0.17237226  0.19914013  0.61262964    -0.11000
C693        C  0.15150317  0.23674844  0.69626036    -0.15100
C694        C  0.15697279  0.24228094  0.73022317    -0.29000
C695        C  0.20808426  0.19013187  0.59035343    -0.03300
C696        C  0.20442852  0.16247986  0.57343895    -0.39800
H697        H  0.21637461  0.22854958  0.64631602     0.13000
H698        H  0.19297617  0.24945316  0.69102217     0.12600
H699        H  0.14298591  0.20559377  0.63576063     0.12000
H700        H  0.16622684  0.18594984  0.59040507     0.12300
H701        H  0.13546131  0.23648167  0.68978732     0.15000
H702        H  0.17288274  0.24113048  0.73734423     0.13800
H703        H  0.22254968  0.20190764  0.58660599     0.11500
H704        H  0.19049450  0.14967231  0.57860194     0.13500
C705        C  0.08027637  0.37641254  0.75930364     0.19600
C706        C  0.08953504  0.36156854  0.73004803    -0.18500
C707        C  0.10077200  0.33346740  0.73436573    -0.10800
C708        C  0.10342763  0.31999154  0.76837829     0.21800
C709        C  0.09439190  0.33524586  0.79774368    -0.20100
C710        C  0.08291411  0.36311606  0.79331023    -0.11000
C711        C  0.11515784  0.29000883  0.77445093    -0.15100
C712        C  0.12840259  0.27727568  0.75090680    -0.29000
C713        C  0.06796382  0.40568802  0.75359373    -0.03300
C714        C  0.05071847  0.41130676  0.77159039    -0.39800
H715        H  0.08764682  0.37134649  0.70359222     0.13000
H716        H  0.10696270  0.32229382  0.71081975     0.12600
H717        H  0.09623494  0.32557296  0.82426564     0.12000
H718        H  0.07627741  0.37440973  0.81650297     0.12300
H719        H  0.11355392  0.27850190  0.80019466     0.15000
H720        H  0.13105110  0.28914793  0.72575537     0.13800
H721        H  0.07229720  0.42181641  0.73233268     0.11500
H722        H  0.04516163  0.39361510  0.79023499     0.13500
C723        C  0.09982851  0.18123112  0.75888010     0.19600
C724        C  0.07892254  0.18010409  0.76536734    -0.18500
C725        C  0.06872207  0.15094536  0.76622219    -0.10800
C726        C  0.07918117  0.12209038  0.76012036     0.21800
C727        C  0.10000280  0.12323115  0.75281313    -0.20100
C728        C  0.11027589  0.15241213  0.75240712    -0.11000
C729        C  0.06832548  0.09105472  0.75810443    -0.15100
C730        C  0.05148902  0.08519400  0.77710585    -0.29000
C731        C  0.10995982  0.21289100  0.75697867    -0.03300
C732        C  0.12977358  0.21709546  0.76437355    -0.39800
H733        H  0.07041782  0.20192260  0.76967238     0.13000
H734        H  0.05252273  0.15123930  0.77052108     0.12600
H735        H  0.10831604  0.10148096  0.74716605     0.12000
H736        H  0.12623948  0.15233424  0.74593282     0.12300
H737        H  0.07368603  0.07330736  0.73918488     0.15000
H738        H  0.04617713  0.10284032  0.79615968     0.13800
H739        H  0.10066372  0.23311572  0.74929766     0.11500
H740        H  0.13866005  0.19660065  0.77279791     0.13500
C741        C  0.89709813  0.17872197  0.75158724     0.19600
C742        C  0.90557651  0.16231438  0.78046990    -0.18500
C743        C  0.91778691  0.13554550  0.77518611    -0.10800
C744        C  0.92223772  0.12466772  0.74060767     0.21800
C745        C  0.91349146  0.14071905  0.71156030    -0.20100
C746        C  0.90106136  0.16756714  0.71690493    -0.11000
C747        C  0.93580737  0.09668972  0.73427311    -0.15100
C748        C  0.94944014  0.08672776  0.75848551    -0.29000
C749        C  0.88509778  0.20794718  0.75952695    -0.03300
C750        C  0.87256924  0.22322684  0.73676724    -0.39800
H751        H  0.90270012  0.17021803  0.80747493     0.13000
H752        H  0.92344997  0.12336561  0.79848251     0.12600
H753        H  0.91656367  0.13278972  0.68464259     0.12000
H754        H  0.89505198  0.17977515  0.69387654     0.12300
H755        H  0.93530810  0.08487142  0.70853722     0.15000
H756        H  0.95166044  0.09997751  0.78293377     0.13800
H757        H  0.88632873  0.21723752  0.78644591     0.11500
H758        H  0.87015546  0.21369125  0.71027612     0.13500
C759        C  0.89506945  0.33093720  0.75077372     0.19600
C760        C  0.89246781  0.36338501  0.74280650    -0.18500
C761        C  0.90847528  0.38488142  0.74665454    -0.10800
C762        C  0.92763474  0.37432172  0.75828116     0.21800
C763        C  0.93009603  0.34210619  0.76729724    -0.20100
C764        C  0.91412609  0.32056674  0.76329811    -0.11000
C765        C  0.94525872  0.39617418  0.76175894    -0.15100
C766        C  0.94718193  0.42319227  0.74277442    -0.29000
C767        C  0.87805670  0.30852024  0.74339412    -0.03300
C768        C  0.87696979  0.27892232  0.75729067    -0.39800
H769        H  0.87799612  0.37213555  0.73328335     0.13000
H770        H  0.90568033  0.40972206  0.74068909     0.12600
H771        H  0.94463091  0.33336407  0.77654145     0.12000
H772        H  0.91712672  0.29574579  0.76895340     0.12300
H773        H  0.95728184  0.38951617  0.78007470     0.15000
H774        H  0.93540461  0.43023478  0.72424157     0.13800
H775        H  0.86616077  0.31694563  0.72585532     0.11500
H776        H  0.88807157  0.27215639  0.77714397     0.13500
N777        N  0.00035668  0.95335757  0.75129323    -0.35700
N778        N  0.03443570  0.49738668  0.76105758    -0.56300
N779        N  0.00418995  0.54809311  0.76003654    -0.35700
N780        N  0.97149801  0.50316408  0.75028970    -0.56300
C781        C  0.01729922  0.93532873  0.74742600     0.27900
C782        C  0.98455051  0.93628850  0.73857420     0.27900
C783        C  0.02149740  0.56495367  0.75682152     0.27900
C784        C  0.98872070  0.56801135  0.75167636     0.27900
C785        C  0.04278717  0.97491194  0.76861480     0.36500
C786        C  0.04626513  0.52205186  0.77120916     0.36500
C787        C  0.95743992  0.97728913  0.74591821     0.36500
C788        C  0.96043532  0.52965606  0.75730338     0.36500
C789        C  0.01208770  0.90632740  0.73215672    -0.21000
C790        C  0.99153613  0.90712443  0.72619785    -0.21000
C791        C  0.01697244  0.59571518  0.74574168    -0.21000
C792        C  0.99629480  0.59764644  0.74254464    -0.21000
C793        C  0.06122772  0.98343625  0.78346089    -0.22100
C794        C  0.06419438  0.51074904  0.78563963    -0.22100
C795        C  0.93762035  0.98655295  0.75281062    -0.22100
C796        C  0.94066405  0.52149678  0.76548722    -0.22100
C797        C  0.03683581  0.94328714  0.76048913    -0.17400
C798        C  0.96385859  0.94553152  0.74000868    -0.17400
C799        C  0.96792149  0.56108993  0.75534113    -0.17400
C800        C  0.04094548  0.55457315  0.76754369    -0.17400
H801        H  0.02184473  0.88627994  0.72620148     0.15500
H802        H  0.98271207  0.88806511  0.71465976     0.15500
H803        H  0.02745942  0.61504374  0.74128919     0.15500
H804        H  0.98776647  0.61871407  0.73514353     0.15500
H805        H  0.07334329  0.96773732  0.79194026     0.13800
H806        H  0.07661304  0.52459996  0.79615744     0.13800
H807        H  0.92450312  0.97138988  0.75564356     0.13800
H808        H  0.92827862  0.53725216  0.77254827     0.13800
H809        H  0.99926649  0.97431772  0.76603354     0.27000
H810        H  0.00283018  0.52614694  0.77232853     0.27000
C811        C  0.14027221  0.74932632  0.76261213    -0.01600
C812        C  0.86267768  0.75034149  0.74397205    -0.01600
C813        C  0.63510819  0.50148275  0.73943881    -0.01600
N814        N  0.49430833  0.79794733  0.75450027    -0.35700
N815        N  0.46418133  0.74823610  0.74500618    -0.56300
N816        N  0.49631457  0.70069773  0.74311783    -0.35700
N817        N  0.52639937  0.74907165  0.75801773    -0.56300
C818        C  0.47697574  0.81433371  0.76143425     0.27900
C819        C  0.50985160  0.81479821  0.76849194     0.27900
C820        C  0.47988611  0.68163487  0.74485996     0.27900
C821        C  0.51270295  0.68221153  0.74977240     0.27900
C822        C  0.45225547  0.77407996  0.74000360     0.36500
C823        C  0.45326224  0.72275847  0.73444049     0.36500
C824        C  0.53780110  0.77577169  0.75730781     0.36500
C825        C  0.53893530  0.72448221  0.74967019     0.36500
C826        C  0.48157646  0.84196255  0.77993484    -0.21000
C827        C  0.50228460  0.84222834  0.78445652    -0.21000
C828        C  0.48591592  0.65072203  0.75275723    -0.21000
C829        C  0.50662445  0.65107702  0.75580059    -0.21000
C830        C  0.43368639  0.76496284  0.72618026    -0.22100
C831        C  0.43433795  0.73241103  0.72263858    -0.22100
C832        C  0.55768863  0.76801195  0.74892113    -0.22100
C833        C  0.55838032  0.73556024  0.74396202    -0.22100
C834        C  0.45720248  0.80536139  0.75067051    -0.17400
C835        C  0.53073894  0.80687233  0.76554599    -0.17400
C836        C  0.53308292  0.69209408  0.74794137    -0.17400
C837        C  0.45975733  0.69077093  0.73717468    -0.17400
H838        H  0.47110404  0.86002220  0.78935096     0.15500
H839        H  0.51078485  0.86058183  0.79800992     0.15500
H840        H  0.47640977  0.62992226  0.75552161     0.15500
H841        H  0.51614947  0.63062943  0.76143658     0.15500
H842        H  0.42089573  0.78013664  0.71978688     0.13800
H843        H  0.42219593  0.71753891  0.71288034     0.13800
H844        H  0.57036854  0.78408529  0.74629247     0.13800
H845        H  0.57166536  0.72177379  0.73679965     0.13800
H846        H  0.49569510  0.77813815  0.73801210     0.27000
H847        H  0.49659799  0.72388655  0.73352627     0.27000
C848        C  0.35919374  0.49856875  0.74948776    -0.01600
O849        O  0.26562215  0.90028751  0.05014935    -0.72100
O850        O  0.23443719  0.86223534  0.96830315    -0.73000
O851        O  0.23119522  0.85932274  0.04308119    -0.61700
O852        O  0.26887544  0.90353461  0.97427310    -0.70100
O853        O  0.28958225  0.86177828  0.97643151    -0.69600
O854        O  0.25128311  0.81674808  0.04217718    -0.60900
O855        O  0.25571926  0.82108989  0.96736017    -0.73400
O856        O  0.28516382  0.85711358  0.05149924    -0.72200
Cu857      Cu  0.24933448  0.88291096  0.00894081     1.04600
Cu858      Cu  0.27114672  0.83778475  0.00938907     1.04300
C859        C  0.28021287  0.88438091  0.06395555     0.94100
C860        C  0.24015474  0.83552915  0.95516965     0.93300
C861        C  0.23516058  0.83075763  0.05279209     0.85400
C862        C  0.28526729  0.88954219  0.96465943     0.91700
N863        N  0.99592460  0.54482508  0.25290421    -0.35700
N864        N  0.96842538  0.99385561  0.26559460    -0.56300
N865        N  0.00073231  0.94702342  0.25423930    -0.35700
N866        N  0.02986164  0.99885229  0.24889730    -0.56300
C867        C  0.98038170  0.56163070  0.26719112     0.27900
C868        C  0.01255628  0.56339178  0.25502649     0.27900
C869        C  0.98522833  0.92803653  0.26424906     0.27900
C870        C  0.01821602  0.93091210  0.26061647     0.27900
C871        C  0.95376431  0.52022282  0.26255062     0.36500
C872        C  0.95707048  0.96757492  0.26045752     0.36500
C873        C  0.03815308  0.52362341  0.23626692     0.36500
C874        C  0.04203518  0.97358211  0.24211384     0.36500
C875        C  0.98728109  0.59106897  0.27874435    -0.21000
C876        C  0.00755984  0.59227547  0.27080808    -0.21000
C877        C  0.99283556  0.89926355  0.27650265    -0.21000
C878        C  0.01363455  0.90122064  0.27470667    -0.21000
C879        C  0.93394726  0.51063005  0.25743688    -0.22100
C880        C  0.93686092  0.97604098  0.25623273    -0.22100
C881        C  0.05619991  0.51396155  0.22070266    -0.22100
C882        C  0.05950597  0.98348021  0.22505562    -0.22100
C883        C  0.95988287  0.55207610  0.26764669    -0.17400
C884        C  0.03188245  0.55554455  0.24147087    -0.17400
C885        C  0.03804374  0.94190472  0.25256481    -0.17400
C886        C  0.96438788  0.93593544  0.26214514    -0.17400
H887        H  0.97857345  0.60992743  0.29124489     0.15500
H888        H  0.01750964  0.61213299  0.27617758     0.15500
H889        H  0.98430108  0.87917431  0.28639365     0.15500
H890        H  0.02409647  0.88273738  0.28291089     0.15500
H891        H  0.92055306  0.52554410  0.25595329     0.13800
H892        H  0.92410549  0.96041915  0.25187016     0.13800
H893        H  0.06751238  0.52865457  0.20802685     0.13800
H894        H  0.07209056  0.96880853  0.21630445     0.13800
H895        H  0.99482420  0.52364082  0.23862981     0.27000
H896        H  0.99924839  0.96856407  0.24085455     0.27000
C897        C  0.13605798  0.74299606  0.24138881    -0.01600
C898        C  0.86324247  0.74856594  0.23927561    -0.01600
C899        C  0.63904660  0.50693408  0.25092395    -0.01600
C900        C  0.36109942  0.51041886  0.25291026    -0.01600
N901        N  0.50018734  0.70918294  0.24507449    -0.35700
N902        N  0.53165656  0.75668200  0.23681111    -0.56300
N903        N  0.50128545  0.80709139  0.24600307    -0.35700
N904        N  0.47048226  0.75928260  0.25850797    -0.56300
C905        C  0.51701093  0.69081029  0.24791947     0.27900
C906        C  0.48454942  0.69204684  0.25813241     0.27900
C907        C  0.51869540  0.82396876  0.24785477     0.27900
C908        C  0.48631499  0.82533406  0.26029388     0.27900
C909        C  0.54235011  0.73036261  0.22747256     0.36500
C910        C  0.54258764  0.78205426  0.22598799     0.36500
C911        C  0.45795713  0.73399538  0.25563679     0.36500
C912        C  0.45858623  0.78557796  0.25697677     0.36500
C913        C  0.51198202  0.66171282  0.26293659    -0.21000
C914        C  0.49150273  0.66252170  0.26945060    -0.21000
C915        C  0.51465789  0.85343818  0.26321066    -0.21000
C916        C  0.49439180  0.85401627  0.27167544    -0.21000
C917        C  0.56021919  0.73901725  0.21083719    -0.22100
C918        C  0.56040283  0.77177423  0.20997366    -0.22100
C919        C  0.43807667  0.74419575  0.25228037    -0.22100
C920        C  0.43846182  0.77684394  0.25302270    -0.22100
C921        C  0.53652360  0.69874929  0.23533365    -0.17400
C922        C  0.46403180  0.70182769  0.25847983    -0.17400
C923        C  0.46544956  0.81722720  0.26153024    -0.17400
C924        C  0.53770698  0.81419344  0.23373999    -0.17400
H925        H  0.52202579  0.64187581  0.26851569     0.15500
H926        H  0.48273778  0.64346048  0.28109705     0.15500
H927        H  0.52506405  0.87278596  0.26790789     0.15500
H928        H  0.48656723  0.87357271  0.28458184     0.15500
H929        H  0.57198016  0.72342711  0.20066299     0.13800
H930        H  0.57247088  0.78633190  0.19938484     0.13800
H931        H  0.42466589  0.72963529  0.24977142     0.13800
H932        H  0.42534742  0.79229545  0.25098054     0.13800
H933        H  0.49899991  0.73057508  0.23128902     0.27000
H934        H  0.49936080  0.78589844  0.23206682     0.27000
O935        O  0.76117981  0.66241684  0.02836484    -0.72100
O936        O  0.72313349  0.63077006  0.95280979    -0.73000
O937        O  0.72250243  0.63290600  0.02840671    -0.61700
O938        O  0.76171349  0.65990910  0.95280038    -0.70100
O939        O  0.77601992  0.61193686  0.95411261    -0.69600
O940        O  0.73693046  0.58504098  0.03033145    -0.60900
O941        O  0.73733793  0.58274095  0.95454529    -0.73400
O942        O  0.77570791  0.61465059  0.03019504    -0.72200
Cu943      Cu  0.74162435  0.64812540  0.99054726     1.04600
Cu944      Cu  0.75703925  0.59691913  0.99241163     1.04300
C945        C  0.77444599  0.64343836  0.04131032     0.94100
C946        C  0.72427229  0.60207153  0.94154366     0.93300
C947        C  0.72351562  0.60480148  0.04132820     0.85400
C948        C  0.77490062  0.64004223  0.94122404     0.91700
O949        O  0.24779540  0.57673910  0.46454263    -0.72100
O950        O  0.21200180  0.62041711  0.53517643    -0.73000
O951        O  0.21606015  0.62244697  0.46008185    -0.61700
O952        O  0.24404297  0.57527242  0.53959734    -0.70100
O953        O  0.26690164  0.61376040  0.54305529    -0.69600
O954        O  0.23777679  0.66228626  0.46609163    -0.60900
O955        O  0.23433788  0.65936576  0.54159651    -0.73400
O956        O  0.26991064  0.61631777  0.46768802    -0.72200
Cu957      Cu  0.22921392  0.59741102  0.49969839     1.04600
Cu958      Cu  0.25302399  0.63935829  0.50480059     1.04300
C959        C  0.26443242  0.58939384  0.45490735     0.94100
C960        C  0.21736048  0.64658246  0.54958320     0.93300
C961        C  0.22247513  0.64991756  0.45068885     0.85400
C962        C  0.26008406  0.58685529  0.55342036     0.91700
O963        O  0.78346524  0.88538459  0.52894310    -0.72100
O964        O  0.74390753  0.92883109  0.46452108    -0.73000
O965        O  0.74603784  0.91862898  0.53855982    -0.61700
O966        O  0.78112098  0.89497849  0.45426305    -0.70100
O967        O  0.76512694  0.84877180  0.44960748    -0.69600
O968        O  0.72925167  0.87335971  0.53145408    -0.60900
O969        O  0.72758842  0.88327528  0.45643355    -0.73400
O970        O  0.76672954  0.83980137  0.52468937    -0.72200
Cu971      Cu  0.76423716  0.90846364  0.49672092     1.04600
Cu972      Cu  0.74657109  0.85968784  0.49026230     1.04300
C973        C  0.78139196  0.85612875  0.53738392     0.94100
C974        C  0.72941584  0.91322441  0.45057735     0.93300
C975        C  0.73186793  0.89968422  0.54786614     0.85400
C976        C  0.77890235  0.86788616  0.43914630     0.91700
C977        C  0.30699067  0.56532922  0.38965106     0.19600
C978        C  0.31802617  0.58186838  0.36378304    -0.18500
C979        C  0.32989253  0.56535253  0.33899134    -0.10800
C980        C  0.33113631  0.53183538  0.33978223     0.21800
C981        C  0.32070515  0.51533383  0.36647523    -0.20100
C982        C  0.30862753  0.53185296  0.39105535    -0.11000
C983        C  0.34392940  0.51395790  0.31393089    -0.15100
C984        C  0.34637197  0.52420120  0.28026561    -0.29000
C985        C  0.29433799  0.58364768  0.41531030    -0.03300
C986        C  0.27719916  0.57183075  0.42920344    -0.39800
H987        H  0.31731701  0.60764826  0.36255328     0.13000
H988        H  0.33837710  0.57893291  0.31963032     0.12600
H989        H  0.32176871  0.48960325  0.36810656     0.12000
H990        H  0.30087987  0.51841120  0.41145490     0.12300
H991        H  0.35335806  0.99412997  0.32195428     0.15000
H992        H  0.33759302  0.54471618  0.27145281     0.13800
H993        H  0.29876120  0.60791241  0.42168224     0.11500
H994        H  0.27203739  0.54837002  0.42115610     0.13500
C995        C  0.43117394  0.89238565  0.25821477     0.19600
C996        C  0.43388318  0.92530542  0.26265291    -0.18500
C997        C  0.41719786  0.94609197  0.26227809    -0.10800
C998        C  0.39757983  0.93430722  0.25638460     0.21800
C999        C  0.39487633  0.90137397  0.25227158    -0.20100
C1000       C  0.41145823  0.88052888  0.25372687    -0.11000
C1001       C  0.38051165  0.95618650  0.24832400    -0.15100
C1002       C  0.37710615  0.98366349  0.26624599    -0.29000
C1003       C  0.44904868  0.87102287  0.25459910    -0.03300
C1004       C  0.44960806  0.84192005  0.26957434    -0.39800
H1005       H  0.44896655  0.93497372  0.26564926     0.13000
H1006       H  0.41977055  0.97149915  0.26441980     0.12600
H1007       H  0.37996214  0.89187884  0.24687239     0.12000
H1008       H  0.40898303  0.85532439  0.24937508     0.12300
H1009       H  0.37175691  0.95017938  0.22492586     0.15000
H1010       H  0.38621964  0.98812200  0.28978056     0.13800
H1011       H  0.46149645  0.87900481  0.23802577     0.11500
H1012       H  0.43688869  0.83480969  0.28607135     0.13500
C1013       C  0.40102480  0.57901613  0.25929217     0.19600
C1014       C  0.40855978  0.59639929  0.28831083    -0.18500
C1015       C  0.42277037  0.62050407  0.28332660    -0.10800
C1016       C  0.42984005  0.62781657  0.24903171     0.21800
C1017       C  0.42252950  0.61024268  0.21997881    -0.20100
C1018       C  0.40820253  0.58613619  0.22494258    -0.11000
C1019       C  0.44556338  0.65244261  0.24309737    -0.15100
C1020       C  0.44804113  0.67764014  0.26481318    -0.29000
C1021       C  0.38654374  0.55285424  0.26674613    -0.03300
C1022       C  0.37517699  0.53758047  0.24220921    -0.39800
H1023       H  0.40355438  0.59112048  0.31511768     0.13000
H1024       H  0.42855555  0.63274596  0.30651503     0.12600
H1025       H  0.42797551  0.61513140  0.19335424     0.12000
H1026       H  0.40324171  0.57284601  0.20192628     0.12300
H1027       H  0.45514286  0.65027769  0.21967024     0.15000
H1028       H  0.43746904  0.68196363  0.28643946     0.13800
H1029       H  0.38487164  0.54593955  0.29445699     0.11500
H1030       H  0.37586717  0.54484946  0.21457339     0.13500
C1031       C  0.66208536  0.97114324  0.33730731     0.19600
C1032       C  0.66373021  0.97879569  0.37354660    -0.18500
C1033       C  0.67697602  0.96161898  0.39563115    -0.10800
C1034       C  0.68836505  0.93588203  0.38198773     0.21800
C1035       C  0.68616893  0.92759913  0.34607980    -0.20100
C1036       C  0.67334150  0.94519518  0.32387402    -0.11000
C1037       C  0.70235960  0.91698373  0.40475105    -0.15100
C1038       C  0.71464541  0.93094548  0.42850782    -0.29000
C1039       C  0.64789796  0.98915612  0.31396300    -0.03300
C1040       C  0.65259091  0.99549543  0.27982058    -0.39800
H1041       H  0.65545704  0.49773402  0.38385328     0.13000
H1042       H  0.67805975  0.96808548  0.42346422     0.12600
H1043       H  0.69460090  0.90767754  0.33508230     0.12000
H1044       H  0.67191364  0.93804836  0.29629845     0.12300
H1045       H  0.70367695  0.89150140  0.40000305     0.15000
H1046       H  0.71450503  0.95676365  0.43093180     0.13800
H1047       H  0.63365646  0.49518222  0.32269548     0.11500
H1048       H  0.66779456  0.98955753  0.27072082     0.13500
C1049       C  0.67430659  0.54134204  0.17743630     0.19600
C1050       C  0.67935879  0.57321447  0.17098060    -0.18500
C1051       C  0.68995174  0.58175248  0.14035621    -0.10800
C1052       C  0.69591851  0.55843218  0.11547728     0.21800
C1053       C  0.69084683  0.52644067  0.12194146    -0.20100
C1054       C  0.67996693  0.51793773  0.15252434    -0.11000
C1055       C  0.70871268  0.56652493  0.08419107    -0.15100
C1056       C  0.70921995  0.59588555  0.06976877    -0.29000
C1057       C  0.66429368  0.53353697  0.21154182    -0.03300
C1058       C  0.65043058  0.51033952  0.21568171    -0.39800
H1059       H  0.67529178  0.59160006  0.19000333     0.13000
H1060       H  0.69409025  0.60648316  0.13713557     0.12600
H1061       H  0.69551792  0.50796123  0.10348022     0.12000
H1062       H  0.67662256  0.49306252  0.15722708     0.12300
H1063       H  0.71817242  0.54777185  0.07295818     0.15000
H1064       H  0.69902143  0.61438253  0.07925919     0.13800
H1065       H  0.66722324  0.54937914  0.23386145     0.11500
H1066       H  0.64641472  0.49530816  0.19323198     0.13500
C1067       C  0.60503632  0.58319180  0.23914037     0.19600
C1068       C  0.59308894  0.59304863  0.21020807    -0.18500
C1069       C  0.58163991  0.62106207  0.21184908    -0.10800
C1070       C  0.58172031  0.64000542  0.24270713     0.21800
C1071       C  0.59421595  0.63088306  0.27123979    -0.20100
C1072       C  0.60570298  0.60265233  0.26964235    -0.11000
C1073       C  0.56873940  0.66902596  0.24590022    -0.15100
C1074       C  0.55087180  0.67184439  0.22889274    -0.29000
C1075       C  0.61596541  0.55220028  0.23579514    -0.03300
C1076       C  0.62896737  0.53905145  0.25954700    -0.39800
H1077       H  0.59245702  0.57883066  0.18614347     0.13000
H1078       H  0.57279527  0.62781270  0.18881272     0.12600
H1079       H  0.59469282  0.64523551  0.29519777     0.12000
H1080       H  0.61474033  0.59609376  0.29246300     0.12300
H1081       H  0.57314907  0.68744436  0.26468066     0.15000
H1082       H  0.54527917  0.65213754  0.21300556     0.13800
H1083       H  0.61315826  0.53889969  0.21143733     0.11500
H1084       H  0.63268995  0.55118320  0.28415581     0.13500
C1085       C  0.60713741  0.92829452  0.24155424     0.19600
C1086       C  0.60550941  0.90455370  0.21538472    -0.18500
C1087       C  0.59089193  0.88057524  0.21840872    -0.10800
C1088       C  0.57793618  0.87962981  0.24816799     0.21800
C1089       C  0.57982461  0.90314699  0.27450009    -0.20100
C1090       C  0.59413196  0.92737203  0.27114293    -0.11000
C1091       C  0.56279496  0.85401307  0.25354198    -0.15100
C1092       C  0.55347094  0.83867930  0.22680027    -0.29000
C1093       C  0.62332247  0.95259321  0.23904389    -0.03300
C1094       C  0.62036147  0.98296788  0.24958287    -0.39800
H1095       H  0.61558647  0.90456262  0.19262784     0.13000
H1096       H  0.59018790  0.86238341  0.19801970     0.12600
H1097       H  0.57017622  0.90275543  0.29782288     0.12000
H1098       H  0.59541783  0.94482757  0.29226031     0.12300
H1099       H  0.55824704  0.84871361  0.28070147     0.15000
H1100       H  0.55748412  0.84348312  0.19933237     0.13800
H1101       H  0.63800926  0.94534161  0.22870498     0.11500
H1102       H  0.60525478  0.99017112  0.25801581     0.13500
C1103       C  0.82988094  0.79492656  0.30917860     0.19600
C1104       C  0.82370740  0.82697318  0.31114523    -0.18500
C1105       C  0.81287157  0.83840876  0.34053495    -0.10800
C1106       C  0.80784799  0.81790163  0.36872222     0.21800
C1107       C  0.81434682  0.78597872  0.36710330    -0.20100
C1108       C  0.82532742  0.77457415  0.33777757    -0.11000
C1109       C  0.79463118  0.82825549  0.39877017    -0.15100
C1110       C  0.79248342  0.85878913  0.40944094    -0.29000
C1111       C  0.83994292  0.78367011  0.27596904    -0.03300
C1112       C  0.85181141  0.75747665  0.27340900    -0.39800
H1113       H  0.82697217  0.84316248  0.28947061     0.13000
H1114       H  0.80780084  0.86295635  0.34030711     0.12600
H1115       H  0.81057596  0.76961890  0.38834901     0.12000
H1116       H  0.82946400  0.74961715  0.33713080     0.12300
H1117       H  0.78661846  0.80975328  0.41321029     0.15000
H1118       H  0.80142010  0.87745528  0.39724576     0.13800
H1119       H  0.83750851  0.79807678  0.25247123     0.11500
H1120       H  0.85382330  0.74239936  0.29656473     0.13500
C1121       C  0.82265171  0.71629349  0.17356573     0.19600
C1122       C  0.81628724  0.68452155  0.17077147    -0.18500
C1123       C  0.80576344  0.67388698  0.14083828    -0.10800
C1124       C  0.80109681  0.69494885  0.11292829     0.21800
C1125       C  0.80721754  0.72694588  0.11588040    -0.20100
C1126       C  0.81810716  0.73750551  0.14574132    -0.11000
C1127       C  0.78874499  0.68459939  0.08179222    -0.15100
C1128       C  0.78819034  0.65418726  0.07002134    -0.29000
C1129       C  0.83367722  0.72589237  0.20630467    -0.03300
C1130       C  0.84890157  0.74728178  0.20725320    -0.39800
H1131       H  0.81951945  0.66773414  0.19192613     0.13000
H1132       H  0.80079559  0.64936355  0.14024164     0.12600
H1133       H  0.80354919  0.74379914  0.09502411     0.12000
H1134       H  0.82252613  0.76227444  0.14737707     0.12300
H1135       H  0.77980747  0.70265006  0.06817707     0.15000
H1136       H  0.79795988  0.63629594  0.08195870     0.13800
H1137       H  0.83116675  0.71138567  0.22984388     0.11500
H1138       H  0.85233794  0.76133281  0.18378011     0.13500
C1139       C  0.17116495  0.69898956  0.30896624     0.19600
C1140       C  0.17492762  0.71696196  0.33983704    -0.18500
C1141       C  0.18442141  0.70274189  0.36930592    -0.10800
C1142       C  0.19001044  0.67028228  0.36842188     0.21800
C1143       C  0.18612510  0.65253050  0.33761665    -0.20100
C1144       C  0.17710683  0.66682014  0.30808746    -0.11000
C1145       C  0.19929289  0.65372350  0.39931479    -0.15100
C1146       C  0.21236266  0.66777177  0.42173455    -0.29000
C1147       C  0.16145763  0.71238166  0.27666177    -0.03300
C1148       C  0.14754764  0.73620579  0.27598405    -0.39800
H1149       H  0.17077364  0.74192097  0.34110640     0.13000
H1150       H  0.18699189  0.71693103  0.39293070     0.12600
H1151       H  0.19025266  0.62752640  0.33628039     0.12000
H1152       H  0.17444329  0.65246870  0.28456983     0.12300
H1153       H  0.19636680  0.62837325  0.40213295     0.15000
H1154       H  0.21659380  0.69248218  0.41766368     0.13800
H1155       H  0.16445423  0.69967860  0.25193721     0.11500
H1156       H  0.14346802  0.74882404  0.30020828     0.13500
C1157       C  0.10668324  0.82387745  0.25043303     0.19600
C1158       C  0.10553107  0.84965084  0.27420099    -0.18500
C1159       C  0.08969642  0.87204260  0.27167269    -0.10800
C1160       C  0.07487620  0.86933160  0.24478366     0.21800
C1161       C  0.07640413  0.84392766  0.22063683    -0.20100
C1162       C  0.09212088  0.82166069  0.22320700    -0.11000
C1163       C  0.05718947  0.89144886  0.24144264    -0.15100
C1164       C  0.05595149  0.92030281  0.25699177    -0.29000
C1165       C  0.12318661  0.79961533  0.25365961    -0.03300
C1166       C  0.11977082  0.76884873  0.24548233    -0.39800
H1167       H  0.11662048  0.85203446  0.29524400     0.13000
H1168       H  0.08895487  0.89088140  0.29128048     0.12600
H1169       H  0.06536005  0.84127381  0.19955097     0.12000
H1170       H  0.09292402  0.80281454  0.20354512     0.12300
H1171       H  0.04469273  0.88393444  0.22463926     0.15000
H1172       H  0.06886980  0.92975490  0.27126021     0.13800
H1173       H  0.13817278  0.80704226  0.26206129     0.11500
H1174       H  0.10429885  0.76224306  0.23903686     0.13500
C1175       C  0.07646134  0.61455160  0.24275942     0.19600
C1176       C  0.09750096  0.61351676  0.23723855    -0.18500
C1177       C  0.10888243  0.64165644  0.23772577    -0.10800
C1178       C  0.09934345  0.67096092  0.24475762     0.21800
C1179       C  0.07837103  0.67197651  0.25011573    -0.20100
C1180       C  0.06698116  0.64414127  0.24879640    -0.11000
C1181       C  0.11100342  0.69999156  0.25223392    -0.15100
C1182       C  0.12542500  0.71206332  0.23078215    -0.29000
C1183       C  0.06476327  0.58458298  0.24520022    -0.03300
C1184       C  0.04558017  0.58269899  0.23343517    -0.39800
H1185       H  0.10512782  0.59089752  0.23309391     0.13000
H1186       H  0.12516649  0.64036793  0.23450484     0.12600
H1187       H  0.07086500  0.69433557  0.25631834     0.12000
H1188       H  0.05090857  0.64567358  0.25427200     0.12300
H1189       H  0.10667885  0.71322162  0.27597772     0.15000
H1190       H  0.12939734  0.69987414  0.20618931     0.13800
H1191       H  0.07178628  0.56431319  0.25831610     0.11500
H1192       H  0.03878916  0.60333752  0.22060733     0.13500
C1193       C  0.89989495  0.67922999  0.26403707     0.19600
C1194       C  0.90803719  0.66459662  0.29441511    -0.18500
C1195       C  0.92145934  0.63877760  0.29105736    -0.10800
C1196       C  0.92725264  0.62775059  0.25715862     0.21800
C1197       C  0.91943989  0.64279534  0.22690529    -0.20100
C1198       C  0.90582044  0.66810464  0.23022211    -0.11000
C1199       C  0.94251836  0.60222639  0.25231799    -0.15100
C1200       C  0.94400594  0.57677519  0.27379538    -0.29000
C1201       C  0.88680626  0.70789459  0.26766540    -0.03300
C1202       C  0.87280615  0.71541584  0.24294720    -0.39800
H1203       H  0.90409949  0.67328218  0.32069243     0.13000
H1204       H  0.92778155  0.62814955  0.31484302     0.12600
H1205       H  0.92402230  0.63506815  0.20056986     0.12000
H1206       H  0.90057741  0.67967004  0.20619115     0.12300
H1207       H  0.95254110  0.60381479  0.22941525     0.15000
H1208       H  0.93296823  0.57309996  0.29481745     0.13800
H1209       H  0.88983415  0.72435802  0.28933851     0.11500
H1210       H  0.86938531  0.69769950  0.22270481     0.13500
C1211       C  0.93003997  0.86595733  0.23633727     0.19600
C1212       C  0.93259081  0.83558246  0.22137765    -0.18500
C1213       C  0.91605719  0.81516782  0.21747232    -0.10800
C1214       C  0.89655437  0.82490565  0.22828147     0.21800
C1215       C  0.89386951  0.85578781  0.24182070    -0.20100
C1216       C  0.91041418  0.87611293  0.24593351    -0.11000
C1217       C  0.87884988  0.80320643  0.22696556    -0.15100
C1218       C  0.88076143  0.77171907  0.23296511    -0.29000
C1219       C  0.94782548  0.88728170  0.23953076    -0.03300
C1220       C  0.94895457  0.91038583  0.26419889    -0.39800
H1221       H  0.94745501  0.82753991  0.21294967     0.13000
H1222       H  0.91859308  0.79192486  0.20573746     0.12600
H1223       H  0.87897263  0.86399357  0.24989168     0.12000
H1224       H  0.90769466  0.89989335  0.25609279     0.12300
H1225       H  0.86401362  0.81389698  0.22415206     0.15000
H1226       H  0.89602756  0.76230226  0.23570159     0.13800
H1227       H  0.96007060  0.88454939  0.22040266     0.11500
H1228       H  0.93694917  0.91317238  0.28372245     0.13500
C1229       C  0.18820690  0.80592678  0.10765694     0.19600
C1230       C  0.16732552  0.81215557  0.10530743    -0.18500
C1231       C  0.15364887  0.79694508  0.12810156    -0.10800
C1232       C  0.16059227  0.77557038  0.15411939     0.21800
C1233       C  0.18144426  0.76869192  0.15586666    -0.20100
C1234       C  0.19508903  0.78389941  0.13320190    -0.11000
C1235       C  0.14588647  0.76167698  0.17973690    -0.15100
C1236       C  0.15119515  0.75346870  0.21312703    -0.29000
C1237       C  0.20239386  0.82358010  0.08405539    -0.03300
C1238       C  0.22123600  0.81321284  0.07636331    -0.39800
H1239       H  0.16158619  0.82900643  0.08592118     0.13000
H1240       H  0.13765966  0.80254282  0.12604397     0.12600
H1241       H  0.18736834  0.75164224  0.17479142     0.12000
H1242       H  0.21103062  0.77879241  0.13654025     0.12300
H1243       H  0.13001955  0.76068302  0.17217488     0.15000
H1244       H  0.16682952  0.75643383  0.22135300     0.13800
H1245       H  0.19692216  0.84543661  0.07180473     0.11500
H1246       H  0.22654513  0.79041489  0.08630589     0.13500
C1247       C  0.32508434  0.96666223  0.19228133     0.19600
C1248       C  0.31877120  0.93477645  0.19306791    -0.18500
C1249       C  0.30786020  0.92177174  0.16470275    -0.10800
C1250       C  0.30278959  0.94060362  0.13502939     0.21800
C1251       C  0.30867047  0.97273171  0.13466774    -0.20100
C1252       C  0.31985002  0.98562403  0.16285156    -0.11000
C1253       C  0.29086085  0.92775363  0.10467869    -0.15100
C1254       C  0.29161578  0.89694610  0.09470660    -0.29000
C1255       C  0.33663999  0.97938894  0.22301716    -0.03300
C1256       C  0.35118222  0.00176178  0.22012666    -0.39800
H1257       H  0.32242879  0.91979210  0.21564760     0.13000
H1258       H  0.30307832  0.89719291  0.16646679     0.12600
H1259       H  0.30471343  0.98785035  0.11236720     0.12000
H1260       H  0.32403105  0.01051504  0.16184891     0.12300
H1261       H  0.28198863  0.94447111  0.08897656     0.15000
H1262       H  0.30161548  0.88047061  0.10846996     0.13800
H1263       H  0.33444532  0.96794565  0.24866344     0.11500
H1264       H  0.35419979  0.01234121  0.19432051     0.13500
C1265       C  0.33602282  0.97312041  0.84392166     0.19600
C1266       C  0.34387667  0.95368887  0.87101433    -0.18500
C1267       C  0.33114916  0.94072721  0.89705819    -0.10800
C1268       C  0.31018181  0.94714236  0.89679216     0.21800
C1269       C  0.30249887  0.96791358  0.87074685    -0.20100
C1270       C  0.31520907  0.98066038  0.84451280    -0.11000
C1271       C  0.29597630  0.93281660  0.92325196    -0.15100
C1272       C  0.29965449  0.90484926  0.93973705    -0.29000
C1273       C  0.34991173  0.98508642  0.81558741    -0.03300
C1274       C  0.34370647  0.99069555  0.78198208    -0.39800
H1275       H  0.35988961  0.94799236  0.87163539     0.13000
H1276       H  0.33785910  0.92589561  0.91743715     0.12600
H1277       H  0.28651594  0.97384723  0.87029039     0.12000
H1278       H  0.30869868  0.99652226  0.82488578     0.12300
H1279       H  0.28155824  0.94475786  0.92777632     0.15000
H1280       H  0.31345874  0.89172809  0.93389473     0.13800
H1281       H  0.36591363  0.98730428  0.82177799     0.11500
H1282       H  0.32792778  0.98641061  0.77549087     0.13500
C1283       C  0.30033443  0.55802977  0.62070777     0.19600
C1284       C  0.32144467  0.55360658  0.61970132    -0.18500
C1285       C  0.33175637  0.54087748  0.64905208    -0.10800
C1286       C  0.32112161  0.53307936  0.68019785     0.21800
C1287       C  0.30006661  0.53733131  0.68116738    -0.20100
C1288       C  0.28971359  0.54933280  0.65163174    -0.11000
C1289       C  0.33178467  0.52429684  0.71336170    -0.15100
C1290       C  0.34768354  0.50404837  0.71470307    -0.29000
C1291       C  0.28999321  0.57423930  0.59056094    -0.03300
C1292       C  0.27049441  0.56898745  0.58196286    -0.39800
H1293       H  0.32999794  0.56051609  0.59637114     0.13000
H1294       H  0.34809099  0.53857907  0.64802818     0.12600
H1295       H  0.29165894  0.53194732  0.70516663     0.12000
H1296       H  0.27354495  0.55319502  0.65374913     0.12300
H1297       H  0.32620315  0.53486333  0.73793252     0.15000
H1298       H  0.35278538  0.49230029  0.69048104     0.13800
H1299       H  0.29880005  0.59082024  0.57470973     0.11500
H1300       H  0.26199127  0.55060842  0.59563027     0.13500
C1301       C  0.42123687  0.87755552  0.73500951     0.19600
C1302       C  0.42381138  0.90889589  0.72286627    -0.18500
C1303       C  0.40771255  0.93072025  0.72352616    -0.10800
C1304       C  0.38853598  0.92169084  0.73633993     0.21800
C1305       C  0.38560933  0.88990115  0.74658189    -0.20100
C1306       C  0.40174867  0.86805046  0.74604473    -0.11000
C1307       C  0.37149159  0.94501041  0.73951310    -0.15100
C1308       C  0.37469133  0.97602412  0.74696230    -0.29000
C1309       C  0.43908163  0.85550667  0.73483437    -0.03300
C1310       C  0.44006742  0.82845508  0.75398620    -0.39800
H1311       H  0.43844658  0.91670205  0.71329355     0.13000
H1312       H  0.41034497  0.95464607  0.71391026     0.12600
H1313       H  0.37089110  0.88211432  0.75577275     0.12000
H1314       H  0.39875537  0.84380437  0.75408164     0.12300
H1315       H  0.35604565  0.93633381  0.73781159     0.15000
H1316       H  0.39019935  0.98376603  0.75099664     0.13800
H1317       H  0.45204223  0.86185674  0.71850222     0.11500
H1318       H  0.42746116  0.82135667  0.77061715     0.13500
C1319       C  0.41701777  0.62967526  0.74981377     0.19600
C1320       C  0.40839026  0.61531751  0.77999253    -0.18500
C1321       C  0.39658972  0.58773468  0.77665170    -0.10800
C1322       C  0.39315721  0.57431482  0.74288825     0.21800
C1323       C  0.40142445  0.58915479  0.71283642    -0.20100
C1324       C  0.41302471  0.61660908  0.71612763    -0.11000
C1325       C  0.38216546  0.54405025  0.73715710    -0.15100
C1326       C  0.36905463  0.53017015  0.75992050    -0.29000
C1327       C  0.43027533  0.65794621  0.75402032    -0.03300
C1328       C  0.44503949  0.66487698  0.73062265    -0.39800
H1329       H  0.41119776  0.62501991  0.80624450     0.13000
H1330       H  0.39070747  0.57663161  0.80044609     0.12600
H1331       H  0.39892176  0.57938956  0.68650456     0.12000
H1332       H  0.41874750  0.62753313  0.69211487     0.12300
H1333       H  0.38480084  0.53234011  0.71171033     0.15000
H1334       H  0.36537343  0.54134834  0.78518842     0.13800
H1335       H  0.42884295  0.67223795  0.77804788     0.11500
H1336       H  0.44816804  0.64915087  0.70832740     0.13500
C1337       C  0.69743418  0.55374008  0.86776491     0.19600
C1338       C  0.69088234  0.52213591  0.86337115    -0.18500
C1339       C  0.67887583  0.51350882  0.83410221    -0.10800
C1340       C  0.67347311  0.53638555  0.80842515     0.21800
C1341       C  0.68057097  0.56766843  0.81235497    -0.20100
C1342       C  0.69234878  0.57630129  0.84158576    -0.11000
C1343       C  0.66105602  0.52905871  0.77651200    -0.15100
C1344       C  0.64823370  0.50423075  0.77292347    -0.29000
C1345       C  0.71023301  0.56243022  0.89890509    -0.03300
C1346       C  0.71053868  0.59213686  0.91259678    -0.39800
H1347       H  0.69494175  0.50414979  0.88277806     0.13000
H1348       H  0.67415982  0.48897018  0.83144847     0.12600
H1349       H  0.67693159  0.58565934  0.79268064     0.12000
H1350       H  0.69776630  0.60055711  0.84312997     0.12300
H1351       H  0.66161300  0.54634753  0.75499415     0.15000
H1352       H  0.64669477  0.48676267  0.79399060     0.13800
H1353       H  0.71945210  0.54387722  0.91102271     0.11500
H1354       H  0.70048025  0.61031403  0.90198894     0.13500
C1355       C  0.67457699  0.96031315  0.67668125     0.19600
C1356       C  0.68189195  0.92903399  0.67274144    -0.18500
C1357       C  0.69552395  0.92117284  0.64563960    -0.10800
C1358       C  0.70225955  0.94451381  0.62161163     0.21800
C1359       C  0.69528931  0.97600143  0.62588693    -0.20100
C1360       C  0.68150081  0.98386831  0.65300555    -0.11000
C1361       C  0.71682286  0.93677346  0.59247471    -0.15100
C1362       C  0.71811603  0.90756992  0.57765966    -0.29000
C1363       C  0.66047394  0.96710729  0.70676086    -0.03300
C1364       C  0.64786614  0.99250855  0.70902173    -0.39800
H1365       H  0.67706071  0.91049101  0.69085109     0.13000
H1366       H  0.70103414  0.89688696  0.64413537     0.12600
H1367       H  0.70044835  0.99453823  0.60805836     0.12000
H1368       H  0.67441799  0.51211565  0.64830063     0.12300
H1369       H  0.72599219  0.95595623  0.58178013     0.15000
H1370       H  0.70798106  0.88883767  0.58632469     0.13800
H1371       H  0.65978007  0.94942266  0.72784612     0.11500
H1372       H  0.64865321  0.51537744  0.68613484     0.13500
C1373       C  0.57620399  0.63080733  0.76333986     0.19600
C1374       C  0.58491784  0.61874479  0.79461424    -0.18500
C1375       C  0.59625471  0.59049181  0.79402615    -0.10800
C1376       C  0.59950920  0.57390476  0.76204197     0.21800
C1377       C  0.59121449  0.58626601  0.73047555    -0.20100
C1378       C  0.57973292  0.61445507  0.73109121    -0.11000
C1379       C  0.61098886  0.54333255  0.76311323    -0.15100
C1380       C  0.62203354  0.53160908  0.73574092    -0.29000
C1381       C  0.56320707  0.65994171  0.76565391    -0.03300
C1382       C  0.54850003  0.66656395  0.74201234    -0.39800
H1383       H  0.58255982  0.63083492  0.81977833     0.13000
H1384       H  0.60249690  0.58150783  0.81872762     0.12600
H1385       H  0.59316380  0.57389929  0.70541720     0.12000
H1386       H  0.57372775  0.62330064  0.70622025     0.12300
H1387       H  0.61158454  0.53111438  0.78852640     0.15000
H1388       H  0.62271450  0.54505321  0.71111646     0.13800
H1389       H  0.56448996  0.67490485  0.78917825     0.11500
H1390       H  0.54561231  0.65019632  0.72025618     0.13500
C1391       C  0.56233077  0.88456293  0.75918164     0.19600
C1392       C  0.56533202  0.90633141  0.73135075    -0.18500
C1393       C  0.58014490  0.92996598  0.73385611    -0.10800
C1394       C  0.59213182  0.93271942  0.76459340     0.21800
C1395       C  0.58881585  0.91156335  0.79288186    -0.20100
C1396       C  0.57420562  0.88750248  0.79014197    -0.11000
C1397       C  0.60734968  0.95857964  0.76814777    -0.15100
C1398       C  0.61914109  0.96758121  0.74063994    -0.29000
C1399       C  0.54626751  0.85994782  0.75521318    -0.03300
C1400       C  0.54628414  0.83189574  0.77262493    -0.39800
H1401       H  0.55622030  0.90496044  0.70744576     0.13000
H1402       H  0.58191190  0.94653669  0.71202331     0.12600
H1403       H  0.59763270  0.91356737  0.81706514     0.12000
H1404       H  0.57196806  0.87178780  0.81257911     0.12300
H1405       H  0.60904613  0.96983816  0.79395566     0.15000
H1406       H  0.61797358  0.95403557  0.71602141     0.13800
H1407       H  0.53447028  0.86428466  0.73562050     0.11500
H1408       H  0.55887998  0.82570654  0.78985304     0.13500
C1409       C  0.80270015  0.68865481  0.86954726     0.19600
C1410       C  0.81001942  0.71995155  0.86786904    -0.18500
C1411       C  0.82145227  0.73009191  0.83870405    -0.10800
C1412       C  0.82559615  0.70907768  0.81039701     0.21800
C1413       C  0.81798234  0.67792339  0.81185268    -0.20100
C1414       C  0.80671965  0.66771531  0.84114413    -0.11000
C1415       C  0.83711327  0.71884219  0.77834221    -0.15100
C1416       C  0.85039002  0.74319858  0.77744077    -0.29000
C1417       C  0.78987858  0.67921658  0.90013546    -0.03300
C1418       C  0.78871162  0.64908640  0.91211823    -0.39800
H1419       H  0.80681702  0.73664832  0.88917945     0.13000
H1420       H  0.82652365  0.75454861  0.83812677     0.12600
H1421       H  0.82072382  0.66140827  0.79016545     0.12000
H1422       H  0.80074282  0.64374409  0.84099551     0.12300
H1423       H  0.83537446  0.70431966  0.75455897     0.15000
H1424       H  0.85314663  0.75720545  0.80123993     0.13800
H1425       H  0.78140033  0.69791067  0.91367142     0.11500
H1426       H  0.79806354  0.63049178  0.90036912     0.13500
C1427       C  0.80992451  0.80033478  0.60274330     0.19600
C1428       C  0.80387080  0.77820518  0.62860381    -0.18500
C1429       C  0.81769129  0.76672200  0.65388207    -0.10800
C1430       C  0.83798127  0.77696139  0.65362941     0.21800
C1431       C  0.84422728  0.79798573  0.62686460    -0.20100
C1432       C  0.83039984  0.80962878  0.60177094    -0.11000
C1433       C  0.85296478  0.76612625  0.68073847    -0.15100
C1434       C  0.84767534  0.75985218  0.71463931    -0.29000
C1435       C  0.79467602  0.81308533  0.57703813    -0.03300
C1436       C  0.79645827  0.84203885  0.56195682    -0.39800
H1437       H  0.78831924  0.77015194  0.62960192     0.13000
H1438       H  0.81248023  0.74965573  0.67337241     0.12600
H1439       H  0.85981564  0.80584481  0.62570598     0.12000
H1440       H  0.83589865  0.82565421  0.58146773     0.12300
H1441       H  0.86889747  0.76554769  0.67350143     0.15000
H1442       H  0.83181128  0.76223667  0.72194284     0.13800
H1443       H  0.78117754  0.79910202  0.57189823     0.11500
H1444       H  0.80918590  0.85705617  0.56893114     0.13500
C1445       C  0.19769748  0.81215322  0.89053448     0.19600
C1446       C  0.17774229  0.80130296  0.89458835    -0.18500
C1447       C  0.16661881  0.79113974  0.86496474    -0.10800
C1448       C  0.17518047  0.79246701  0.83073680     0.21800
C1449       C  0.19503291  0.80355258  0.82673257    -0.20100
C1450       C  0.20628604  0.81295380  0.85633515    -0.11000
C1451       C  0.16357636  0.78390942  0.79847175    -0.15100
C1452       C  0.15090015  0.75889863  0.79703884    -0.29000
C1453       C  0.20885352  0.82480226  0.92167544    -0.03300
C1454       C  0.22898273  0.82119014  0.92533302    -0.39800
H1455       H  0.17074977  0.80085020  0.92066573     0.13000
H1456       H  0.15117343  0.78324967  0.86867322     0.12600
H1457       H  0.20184045  0.80499776  0.80055180     0.12000
H1458       H  0.22145277  0.82193049  0.85226653     0.12300
H1459       H  0.16667335  0.79714838  0.77424306     0.15000
H1460       H  0.14860213  0.74462590  0.82081961     0.13800
H1461       H  0.20026555  0.83696126  0.94236560     0.11500
H1462       H  0.23739505  0.80640204  0.90667560     0.13500
C1463       C  0.19271149  0.70229947  0.61922978     0.19600
C1464       C  0.20010740  0.71885756  0.64887984    -0.18500
C1465       C  0.18686573  0.73007244  0.67523628    -0.10800
C1466       C  0.16582817  0.72504789  0.67230587     0.21800
C1467       C  0.15841371  0.71002204  0.64160099    -0.20100
C1468       C  0.17164962  0.69878628  0.61535139    -0.11000
C1469       C  0.15104917  0.73438096  0.70049863    -0.15100
C1470       C  0.15615415  0.74315576  0.73384479    -0.29000
C1471       C  0.20723299  0.68865180  0.59297726    -0.03300
C1472       C  0.20330123  0.66150650  0.57528070    -0.39800
H1473       H  0.21623825  0.72241711  0.65211595     0.13000
H1474       H  0.19333193  0.74247356  0.69767106     0.12600
H1475       H  0.14229830  0.70638275  0.63818407     0.12000
H1476       H  0.16533347  0.68729640  0.59210356     0.12300
H1477       H  0.13503701  0.73234544  0.69420553     0.15000
H1478       H  0.17197263  0.74452296  0.74128118     0.13800
H1479       H  0.22184828  0.70007247  0.58969809     0.11500
H1480       H  0.18920654  0.64903180  0.58019003     0.13500
C1481       C  0.07327912  0.87042407  0.75204389     0.19600
C1482       C  0.08405211  0.85599282  0.72402146    -0.18500
C1483       C  0.09650635  0.82938917  0.73005698    -0.10800
C1484       C  0.09851002  0.81654613  0.76450569     0.21800
C1485       C  0.08742081  0.83059276  0.79233645    -0.20100
C1486       C  0.07495399  0.85708497  0.78630053    -0.11000
C1487       C  0.11164555  0.78847777  0.77287877    -0.15100
C1488       C  0.12617346  0.77663392  0.75120514    -0.29000
C1489       C  0.05979348  0.89821015  0.74407174    -0.03300
C1490       C  0.05128530  0.91699750  0.76911835    -0.39800
H1491       H  0.08278388  0.86529392  0.69723568     0.13000
H1492       H  0.10422944  0.81891662  0.70751614     0.12600
H1493       H  0.08840494  0.82101279  0.81903770     0.12000
H1494       H  0.06647613  0.86647737  0.80858383     0.12300
H1495       H  0.10985688  0.77759143  0.79891899     0.15000
H1496       H  0.12888699  0.78772837  0.72562626     0.13800
H1497       H  0.05657589  0.90341217  0.71631095     0.11500
H1498       H  0.05531476  0.91429625  0.79688348     0.13500
C1499       C  0.10133172  0.67871290  0.76377111     0.19600
C1500       C  0.08049307  0.67605061  0.76986796    -0.18500
C1501       C  0.07118226  0.64625208  0.77014307    -0.10800
C1502       C  0.08249372  0.61821585  0.76396005     0.21800
C1503       C  0.10337793  0.62081271  0.75771278    -0.20100
C1504       C  0.11277773  0.65073742  0.75787502    -0.11000
C1505       C  0.07231355  0.58673927  0.76052612    -0.15100
C1506       C  0.05520264  0.58013306  0.77837867    -0.29000
C1507       C  0.11019954  0.71110644  0.76079388    -0.03300
C1508       C  0.12964061  0.71747942  0.76879165    -0.39800
H1509       H  0.07129539  0.69721241  0.77387728     0.13000
H1510       H  0.05494256  0.64549528  0.77372540     0.12600
H1511       H  0.11236154  0.59970662  0.75217445     0.12000
H1512       H  0.12879101  0.65194899  0.75193328     0.12300
H1513       H  0.07813116  0.56973347  0.74117794     0.15000
H1514       H  0.04953702  0.59705893  0.79791918     0.13800
H1515       H  0.10027832  0.72995481  0.75140386     0.11500
H1516       H  0.13912151  0.69823376  0.77878291     0.13500
C1517       C  0.89880485  0.67597607  0.75148828     0.19600
C1518       C  0.90888543  0.66282054  0.78093655    -0.18500
C1519       C  0.92126297  0.63600350  0.77723411    -0.10800
C1520       C  0.92402442  0.62166251  0.74376516     0.21800
C1521       C  0.91348955  0.63408734  0.71439996    -0.20100
C1522       C  0.90107368  0.66113597  0.71808021    -0.11000
C1523       C  0.93759932  0.59358683  0.73908935    -0.15100
C1524       C  0.95387608  0.58863682  0.75992362    -0.29000
C1525       C  0.88668468  0.70548215  0.75748909    -0.03300
C1526       C  0.87451078  0.72019214  0.73360499    -0.39800
H1527       H  0.90726109  0.67344699  0.80708602     0.13000
H1528       H  0.92849945  0.62644083  0.80075957     0.12600
H1529       H  0.91520981  0.62322571  0.68840335     0.12000
H1530       H  0.89363844  0.67041486  0.69466360     0.12300
H1531       H  0.93467499  0.57727429  0.71722221     0.15000
H1532       H  0.95813741  0.60648977  0.77943848     0.13800
H1533       H  0.88758031  0.71570406  0.78402847     0.11500
H1534       H  0.87253210  0.71026835  0.70719898     0.13500
C1535       C  0.89616535  0.82837239  0.74409042     0.19600
C1536       C  0.89362242  0.86025511  0.73365093    -0.18500
C1537       C  0.90952270  0.88203657  0.73652599    -0.10800
C1538       C  0.92855112  0.87235395  0.74964272     0.21800
C1539       C  0.93100368  0.84068537  0.76085827    -0.20100
C1540       C  0.91511981  0.81883651  0.75785782    -0.11000
C1541       C  0.94590112  0.89477263  0.75302292    -0.15100
C1542       C  0.94770040  0.92150349  0.73348112    -0.29000
C1543       C  0.87918979  0.80560905  0.73784986    -0.03300
C1544       C  0.87817166  0.77640320  0.75278514    -0.39800
H1545       H  0.87925046  0.86836573  0.72303046     0.13000
H1546       H  0.90668261  0.90646516  0.72881146     0.12600
H1547       H  0.94543170  0.83262015  0.77129579     0.12000
H1548       H  0.91809737  0.79442765  0.76542436     0.12300
H1549       H  0.95764288  0.88911003  0.77229171     0.15000
H1550       H  0.93624186  0.92759438  0.71395678     0.13800
H1551       H  0.86729087  0.81342494  0.71999389     0.11500
H1552       H  0.88923478  0.77029041  0.77295380     0.13500
loop_ 
_geom_bond_atom_site_label_1 
_geom_bond_atom_site_label_2 
_geom_bond_distance 
_geom_bond_site_symmetry_2 
_ccdc_geom_bond_type 
N1            C6   1.357   1_455  A
N1            C5   1.354       .  A
N1           H33   1.035       .  S
N2           C10   1.355       .  A
N2          C785   1.353   1_545  A
N3            C8   1.352   1_455  A
N3            C7   1.353       .  A
N3           H34   1.040   1_455  S
N4           C12   1.353       .  A
N4          C787   1.351   1_545  A
C5           C13   1.387       .  A
C5           C21   1.416       .  A
C6           C22   1.419       .  A
C6           C14   1.387       .  A
C7           C15   1.389       .  A
C7           C24   1.415       .  A
C8           C23   1.410       .  A
C8           C16   1.386       .  A
C9          N778   1.352       .  A
C9           C21   1.417       .  A
C9           C17   1.387       .  A
C10          C24   1.417       .  A
C10          C18   1.385       .  A
C11         N780   1.351       .  A
C11          C19   1.386       .  A
C11          C22   1.412       .  A
C12          C20   1.385       .  A
C12          C23   1.412       .  A
C13          C14   1.377   1_455  A
C13          H25   1.083       .  S
C14          H26   1.082       .  S
C15          C16   1.371   1_455  A
C15          H27   1.082       .  S
C16          H28   1.083       .  S
C17         C794   1.376       .  A
C17          H29   1.082       .  S
C18         C793   1.376   1_545  A
C18          H30   1.082       .  S
C19         C796   1.372       .  A
C19          H31   1.082       .  S
C20         C795   1.373   1_545  A
C20          H32   1.082       .  S
C21         C714   1.489       .  S
C22         C766   1.492       .  S
C23         C748   1.484       .  S
C24         C730   1.491       .  S
C35         C676   1.526       .  S
C35         C694   1.526       .  S
C35         C712   1.532       .  S
C35         C732   1.532       .  S
C36         C640   1.529       .  S
C36         C658   1.534       .  S
C36         C750   1.533       .  S
C36         C768   1.536       .  S
C37         C568   1.535       .  S
C37         C604   1.535   1_565  S
C37        C1364   1.535       .  S
C37        C1398   1.534       .  S
N38          C43   1.357       .  A
N38          C42   1.355       .  A
N38          H70   1.040       .  S
N39          C46   1.351       .  A
N39          C47   1.355       .  A
N40          C45   1.355       .  A
N40          C44   1.355       .  A
N40          H71   1.038       .  S
N41          C48   1.354       .  A
N41          C49   1.355       .  A
C42          C50   1.386       .  A
C42          C58   1.419       .  A
C43          C59   1.422       .  A
C43          C51   1.388       .  A
C44          C52   1.385       .  A
C44          C61   1.416       .  A
C45          C60   1.421       .  A
C45          C53   1.390       .  A
C46          C58   1.414       .  A
C46          C54   1.387       .  A
C47          C61   1.415       .  A
C47          C55   1.385       .  A
C48          C56   1.387       .  A
C48          C59   1.417       .  A
C49          C57   1.386       .  A
C49          C60   1.417       .  A
C50          C51   1.377       .  A
C50          H62   1.082       .  S
C51          H63   1.082       .  S
C52          C53   1.373       .  A
C52          H64   1.082       .  S
C53          H65   1.080       .  S
C54          C55   1.372       .  A
C54          H66   1.083       .  S
C55          H67   1.082       .  S
C56          C57   1.374       .  A
C56          H68   1.082       .  S
C57          H69   1.082       .  S
C58         C534   1.489       .  S
C59         C624   1.498       .  S
C60         C606   1.493       .  S
C61         C552   1.496       .  S
C72         C514   1.531       .  S
C72         C550   1.535       .  S
C72        C1274   1.533   1_545  S
C72        C1308   1.531   1_545  S
O73         Cu81   2.017       .  S
O73          C83   1.279       .  A
O74         Cu81   2.008   1_556  S
O74          C84   1.278       .  A
O75         Cu81   2.012       .  S
O75          C85   1.279       .  A
O76         Cu81   2.022   1_556  S
O76          C86   1.280       .  A
O77         Cu82   2.003   1_556  S
O77          C86   1.276       .  A
O78         Cu82   2.005       .  S
O78          C85   1.276       .  A
O79         Cu82   2.011   1_556  S
O79          C84   1.277       .  A
O80         Cu82   2.009       .  S
O80          C83   1.277       .  A
Cu81        Cu82   2.375       .  S
C83         C478   1.477       .  S
C84         C678   1.472       .  S
C85         C462   1.475       .  S
C86         C496   1.476       .  S
N87          C92   1.351   1_655  A
N87          C91   1.353       .  A
N87         H119   1.040       .  S
N88          C96   1.352       .  A
N88         C871   1.353       .  A
N89          C94   1.357   1_655  A
N89          C93   1.355       .  A
N89         H120   1.040       .  S
N90          C98   1.350       .  A
N90         C873   1.353       .  A
C91          C99   1.387       .  A
C91         C107   1.413       .  A
C92         C108   1.411       .  A
C92         C100   1.388       .  A
C93         C101   1.385       .  A
C93         C110   1.418       .  A
C94         C109   1.423       .  A
C94         C102   1.388       .  A
C95         N864   1.353   1_545  A
C95         C107   1.408       .  A
C95         C103   1.384       .  A
C96         C110   1.415       .  A
C96         C104   1.389       .  A
C97         N866   1.353   1_545  A
C97         C105   1.387       .  A
C97         C108   1.415       .  A
C98         C106   1.386       .  A
C98         C109   1.412       .  A
C99         C100   1.373   1_655  A
C99         H111   1.082       .  S
C100        H112   1.082       .  S
C101        C102   1.380   1_655  A
C101        H113   1.082       .  S
C102        H114   1.082       .  S
C103        C880   1.370   1_545  A
C103        H115   1.082       .  S
C104        C879   1.372       .  A
C104        H116   1.082       .  S
C105        C882   1.373   1_545  A
C105        H117   1.082       .  S
C106        C881   1.373       .  A
C106        H118   1.082       .  S
C107        C424   1.488       .  S
C108        C408   1.488       .  S
C109        C388   1.495       .  S
C110        C444   1.493       .  S
C121        C372   1.537       .  S
C121        C390   1.534       .  S
C121        C406   1.531       .  S
C121        C460   1.525       .  S
C122        C336   1.534       .  S
C122        C354   1.532       .  S
C122        C426   1.532       .  S
C122        C442   1.539       .  S
C123        C282   1.529       .  S
C123        C300   1.535       .  S
C123       C1040   1.528   1_545  S
C123       C1094   1.527   1_545  S
C124        C208   1.530       .  S
C124        C246   1.527       .  S
C124       C1002   1.542   1_545  S
C124       C1256   1.531       .  S
N125        C130   1.353       .  A
N125        C129   1.355       .  A
N125        H157   1.039       .  S
N126        C133   1.354       .  A
N126        C134   1.351       .  A
N127        C132   1.356       .  A
N127        C131   1.353       .  A
N127        H158   1.039       .  S
N128        C135   1.353       .  A
N128        C136   1.353       .  A
C129        C137   1.386       .  A
C129        C145   1.415       .  A
C130        C146   1.416       .  A
C130        C138   1.387       .  A
C131        C139   1.388       .  A
C131        C148   1.419       .  A
C132        C147   1.420       .  A
C132        C140   1.386       .  A
C133        C145   1.413       .  A
C133        C141   1.385       .  A
C134        C148   1.413       .  A
C134        C142   1.388       .  A
C135        C143   1.386       .  A
C135        C146   1.413       .  A
C136        C144   1.387       .  A
C136        C147   1.414       .  A
C137        C138   1.373       .  A
C137        H149   1.082       .  S
C138        H150   1.082       .  S
C139        C140   1.376       .  A
C139        H151   1.081       .  S
C140        H152   1.082       .  S
C141        C142   1.374       .  A
C141        H153   1.082       .  S
C142        H154   1.082       .  S
C143        C144   1.371       .  A
C143        H155   1.082       .  S
C144        H156   1.082       .  S
C145        C298   1.492       .  S
C146        C244   1.489       .  S
C147        C228   1.495       .  S
C148        C316   1.484       .  S
O159       Cu167   2.009   1_554  S
O159        C169   1.278       .  A
O160       Cu167   2.014       .  S
O160        C170   1.278       .  A
O161       Cu167   2.006   1_554  S
O161        C171   1.277       .  A
O162       Cu167   2.006       .  S
O162        C172   1.278       .  A
O163       Cu168   2.018       .  S
O163        C172   1.278       .  A
O164       Cu168   2.010   1_554  S
O164        C171   1.278       .  A
O165       Cu168   2.024       .  S
O165        C170   1.279       .  A
O166       Cu168   2.025   1_554  S
O166        C169   1.280       .  A
Cu167      Cu168   2.374       .  S
C169        C352   1.481       .  S
C170        C570   1.480       .  S
C171        C280   1.473       .  S
C172        C642   1.476       .  S
O173       Cu181   2.005       .  S
O173        C183   1.276       .  A
O174       Cu181   1.996       .  S
O174        C184   1.275       .  A
O175       Cu181   2.018       .  S
O175        C185   1.280       .  A
O176       Cu181   2.017       .  S
O176        C186   1.278       .  A
O177       Cu182   2.022       .  S
O177        C186   1.280       .  A
O178       Cu182   2.024       .  S
O178        C185   1.278       .  A
O179       Cu182   2.024       .  S
O179        C184   1.280       .  A
O180       Cu182   2.029       .  S
O180        C183   1.280       .  A
Cu181      Cu182   2.373       .  S
C183        C210   1.479       .  S
C184        C696   1.474       .  S
C185        C370   1.486       .  S
C186        C516   1.481       .  S
O187       Cu195   2.010       .  S
O187        C197   1.277       .  A
O188       Cu195   2.002       .  S
O188        C198   1.276       .  A
O189       Cu195   2.024       .  S
O189        C199   1.280       .  A
O190       Cu195   2.027       .  S
O190        C200   1.280       .  A
O191       Cu196   2.007       .  S
O191        C200   1.277       .  A
O192       Cu196   2.003       .  S
O192        C199   1.276       .  A
O193       Cu196   2.039       .  S
O193        C198   1.282       .  A
O194       Cu196   2.029       .  S
O194        C197   1.280       .  A
Cu195      Cu196   2.373       .  S
C197        C660   1.481       .  S
C198        C262   1.480       .  S
C199        C586   1.476       .  S
C200        C334   1.481       .  S
C201        C202   1.403       .  A
C201        C206   1.409       .  A
C201        C209   1.490       .  S
C202        C203   1.401       .  A
C202        H211   1.083       .  S
C203        C204   1.410       .  A
C203        H212   1.083       .  S
C204        C205   1.402       .  A
C204        C207   1.490       .  S
C205        C206   1.401       .  A
C205        H213   1.083   1_545  S
C206        H214   1.082       .  S
C207        C208   1.347       .  D
C207        H991   1.085   1_545  S
C208        H216   1.088       .  S
C209        C210   1.346       .  D
C209        H217   1.087       .  S
C210        H218   1.086       .  S
H215        C983   1.085       .  S
C219        C220   1.404       .  A
C219        C224   1.410       .  A
C219        C227   1.489       .  S
C220        C221   1.400       .  A
C220        H229   1.083       .  S
C221        C222   1.404       .  A
C221        H230   1.084       .  S
C222        C223   1.400       .  A
C222        C225   1.477       .  S
C223        C224   1.400       .  A
C223        H231   1.083       .  S
C224        H232   1.082       .  S
C225        C226   1.348       .  D
C225        H233   1.082       .  S
C226        C900   1.540       .  S
C226        H234   1.087       .  S
C227        C228   1.346       .  D
C227        H235   1.087       .  S
C228        H236   1.086       .  S
C237        C238   1.403       .  A
C237        C242   1.406       .  A
C237        C245   1.483       .  S
C238        C239   1.395       .  A
C238        H247   1.084       .  S
C239        C240   1.406       .  A
C239        H248   1.082       .  S
C240        C241   1.405       .  A
C240        C243   1.485       .  S
C241        C242   1.401       .  A
C241        H249   1.083       .  S
C242        H250   1.082       .  S
C243        C244   1.347       .  D
C243        H251   1.087       .  S
C244        H252   1.085       .  S
C245        C246   1.352       .  D
C245        H253   1.087       .  S
C246        H254   1.085       .  S
C255        C256   1.403       .  A
C255        C260   1.408       .  A
C255        C263   1.487       .  S
C256        C257   1.403       .  A
C256       H1041   1.083       .  S
C257        C258   1.408       .  A
C257        H266   1.083       .  S
C258        C259   1.402       .  A
C258        C261   1.488       .  S
C259        C260   1.400       .  A
C259        H267   1.083       .  S
C260        H268   1.083       .  S
C261        C262   1.344       .  D
C261        H269   1.087       .  S
C262        H270   1.087       .  S
C263        C264   1.348       .  D
C263       H1047   1.086       .  S
C264        C899   1.528       .  S
C264        H272   1.088       .  S
H265       C1032   1.083       .  S
H271       C1039   1.086       .  S
C273        C274   1.402       .  A
C273        C278   1.408       .  A
C273        C281   1.482       .  S
C274        C275   1.394       .  A
C274        H283   1.084       .  S
C275        C276   1.405       .  A
C275        H284   1.082       .  S
C276        C277   1.404       .  A
C276        C279   1.483       .  S
C277        C278   1.402       .  A
C277        H285   1.083       .  S
C278        H286   1.082   1_545  S
C279        C280   1.345       .  D
C279        H287   1.087       .  S
C280        H288   1.086       .  S
C281        C282   1.349       .  D
C281        H289   1.088       .  S
C282        H290   1.086   1_545  S
C291        C292   1.405       .  A
C291        C296   1.408       .  A
C291        C299   1.492       .  S
C292        C293   1.396       .  A
C292        H301   1.084       .  S
C293        C294   1.405       .  A
C293        H302   1.082       .  S
C294        C295   1.407       .  A
C294        C297   1.493       .  S
C295        C296   1.407       .  A
C295        H303   1.083       .  S
C296        H304   1.081       .  S
C297        C298   1.349       .  D
C297        H305   1.087       .  S
C298        H306   1.086       .  S
C299        C300   1.355       .  D
C299        H307   1.088       .  S
C300        H308   1.084       .  S
C309        C310   1.402       .  A
C309        C314   1.406       .  A
C309        C317   1.481       .  S
C310        C311   1.401       .  A
C310        H319   1.083       .  S
C311        C312   1.408       .  A
C311        H320   1.082       .  S
C312        C313   1.400       .  A
C312        C315   1.479       .  S
C313        C314   1.395       .  A
C313        H321   1.084       .  S
C314        H322   1.083       .  S
C315        C316   1.341       .  D
C315        H323   1.087       .  S
C316        H324   1.086       .  S
C317        C318   1.345       .  D
C317        H325   1.086       .  S
C318        C899   1.523       .  S
C318        H326   1.088       .  S
C327        C328   1.405       .  A
C327        C332   1.407       .  A
C327        C335   1.489       .  S
C328        C329   1.399       .  A
C328        H337   1.083       .  S
C329        C330   1.405       .  A
C329        H338   1.082       .  S
C330        C331   1.406       .  A
C330        C333   1.489       .  S
C331        C332   1.402       .  A
C331        H339   1.083       .  S
C332        H340   1.081       .  S
C333        C334   1.349       .  D
C333        H341   1.087       .  S
C334        H342   1.085       .  S
C335        C336   1.351       .  D
C335        H343   1.084       .  S
C336        H344   1.084       .  S
C345        C346   1.405       .  A
C345        C350   1.405       .  A
C345        C353   1.486       .  S
C346        C347   1.398       .  A
C346        H355   1.084       .  S
C347        C348   1.405       .  A
C347        H356   1.082       .  S
C348        C349   1.406       .  A
C348        C351   1.489       .  S
C349        C350   1.403       .  A
C349        H357   1.083       .  S
C350        H358   1.082       .  S
C351        C352   1.349       .  D
C351        H359   1.087       .  S
C352        H360   1.086       .  S
C353        C354   1.354       .  D
C353        H361   1.088       .  S
C354        H362   1.086       .  S
C363        C364   1.408       .  A
C363        C368   1.404       .  A
C363        C371   1.487       .  S
C364        C365   1.411       .  A
C364        H373   1.082       .  S
C365        C366   1.411       .  A
C365        H374   1.083       .  S
C366        C367   1.399       .  A
C366        C369   1.487       .  S
C367        C368   1.393       .  A
C367        H375   1.084       .  S
C368        H376   1.084       .  S
C369        C370   1.346       .  D
C369        H377   1.087       .  S
C370        H378   1.086       .  S
C371        C372   1.356       .  D
C371        H379   1.088       .  S
C372        H380   1.086       .  S
C381        C382   1.402       .  A
C381        C386   1.410       .  A
C381        C389   1.496       .  S
C382        C383   1.404       .  A
C382        H391   1.083       .  S
C383        C384   1.412       .  A
C383        H392   1.080       .  S
C384        C385   1.403       .  A
C384        C387   1.497       .  S
C385        C386   1.399       .  A
C385        H393   1.084       .  S
C386        H394   1.082       .  S
C387        C388   1.346       .  D
C387        H395   1.087       .  S
C388        H396   1.084       .  S
C389        C390   1.346       .  D
C389        H397   1.086       .  S
C390        H398   1.087       .  S
C399        C400   1.403       .  A
C399        C404   1.404       .  A
C399        C407   1.477       .  S
C400        C401   1.401       .  A
C400        H409   1.083       .  S
C401        C402   1.404       .  A
C401        H410   1.083       .  S
C402        C403   1.401       .  A
C402        C405   1.472       .  S
C403        C404   1.393       .  A
C403        H411   1.084       .  S
C404        H412   1.083       .  S
C405        C406   1.349       .  D
C405        H413   1.088       .  S
C406        H414   1.087       .  S
C407        C408   1.342       .  D
C407        H415   1.086       .  S
C408        H416   1.087       .  S
C417        C418   1.402       .  A
C417        C422   1.407       .  A
C417        C425   1.483       .  S
C418        C419   1.402       .  A
C418        H427   1.083       .  S
C419        C420   1.408       .  A
C419        H428   1.082       .  S
C420        C421   1.400       .  A
C420        C423   1.481       .  S
C421        C422   1.394       .  A
C421        H429   1.084       .  S
C422        H430   1.083       .  S
C423        C424   1.343       .  D
C423        H431   1.088       .  S
C424        H432   1.086       .  S
C425        C426   1.346       .  D
C425        H433   1.086       .  S
C426        H434   1.089       .  S
C435        C436   1.404       .  A
C435        C440   1.408       .  A
C435        C443   1.492       .  S
C436        C437   1.403       .  A
C436        H445   1.083       .  S
C437        C438   1.411       .  A
C437        H446   1.081       .  S
C438        C439   1.404       .  A
C438        C441   1.496       .  S
C439        C440   1.400       .  A
C439        H447   1.083       .  S
C440        H448   1.082       .  S
C441        C442   1.349       .  D
C441        H449   1.081       .  S
C442        H450   1.085       .  S
C443        C444   1.348       .  D
C443        H451   1.087       .  S
C444        H452   1.085       .  S
C453        C454   1.404       .  A
C453        C458   1.408       .  A
C453        C461   1.487       .  S
C454        C455   1.399       .  A
C454        H463   1.083       .  S
C455        C456   1.402       .  A
C455        H464   1.083       .  S
C456        C457   1.408       .  A
C456        C459   1.487       .  S
C457        C458   1.398       .  A
C457        H465   1.082       .  S
C458        H466   1.081       .  S
C459        C460   1.346       .  D
C459        H467   1.087       .  S
C460        H468   1.086       .  S
C461        C462   1.346       .  D
C461        H469   1.087       .  S
C462        H470   1.084       .  S
C471        C472   1.402       .  A
C471        C476   1.407       .  A
C471        C479   1.484       .  S
C472        C473   1.398       .  A
C472        H481   1.083       .  S
C473        C474   1.407       .  A
C473        H482   1.082       .  S
C474        C475   1.404       .  A
C474        C477   1.486       .  S
C475        C476   1.401       .  A
C475        H483   1.083       .  S
C476        H484   1.082       .  S
C477        C478   1.346       .  D
C477        H485   1.087       .  S
C478        H486   1.086       .  S
C479        C480   1.349       .  D
C479        H487   1.087       .  S
C480        C900   1.530       .  S
C480        H488   1.086       .  S
C489        C490   1.403       .  A
C489        C494   1.411       .  A
C489        C497   1.492       .  S
C490        C491   1.399       .  A
C490        H499   1.083       .  S
C491        C492   1.408       .  A
C491        H500   1.082       .  S
C492        C493   1.403       .  A
C492        C495   1.488       .  S
C493        C494   1.401       .  A
C493        H501   1.083       .  S
C494        H502   1.081       .  S
C495        C496   1.346       .  D
C495        H503   1.087       .  S
C496        H504   1.085       .  S
C497        C498   1.347       .  D
C497        H505   1.087       .  S
C498        C848   1.528       .  S
C498        H506   1.085       .  S
C507        C508   1.404       .  A
C507        C512   1.406       .  A
C507        C515   1.486       .  S
C508        C509   1.400       .  A
C508        H517   1.083       .  S
C509        C510   1.405       .  A
C509        H518   1.083       .  S
C510        C511   1.405       .  A
C510        C513   1.484       .  S
C511        C512   1.401       .  A
C511        H519   1.084       .  S
C512        H520   1.083       .  S
C513        C514   1.351       .  D
C513        H521   1.087       .  S
C514        H522   1.087   1_545  S
C515        C516   1.345       .  D
C515        H523   1.087       .  S
C516        H524   1.086       .  S
C525        C526   1.403       .  A
C525        C530   1.411       .  A
C525        C533   1.490       .  S
C526        C527   1.398       .  A
C526        H535   1.083       .  S
C527        C528   1.408       .  A
C527        H536   1.082       .  S
C528        C529   1.401       .  A
C528        C531   1.487       .  S
C529        C530   1.400       .  A
C529        H537   1.083       .  S
C530        H538   1.081       .  S
C531        C532   1.345       .  D
C531        H539   1.087       .  S
C532        C848   1.526       .  S
C532        H540   1.087       .  S
C533        C534   1.345       .  D
C533        H541   1.087       .  S
C534        H542   1.084       .  S
C543        C544   1.406       .  A
C543        C548   1.407       .  A
C543        C551   1.495       .  S
C544        C545   1.404       .  A
C544        H553   1.083       .  S
C545        C546   1.408       .  A
C545        H554   1.080       .  S
C546        C547   1.406       .  A
C546        C549   1.493       .  S
C547        C548   1.399       .  A
C547        H555   1.084       .  S
C548        H556   1.081       .  S
C549        C550   1.357       .  D
C549        H557   1.088       .  S
C550        H558   1.084       .  S
C551        C552   1.349       .  D
C551        H559   1.087       .  S
C552        H560   1.085       .  S
C561        C562   1.407       .  A
C561        C566   1.405       .  A
C561        C569   1.493       .  S
C562        C563   1.406       .  A
C562        H571   1.083       .  S
C563        C564   1.409       .  A
C563        H572   1.081   1_545  S
C564        C565   1.404       .  A
C564        C567   1.492       .  S
C565        C566   1.395       .  A
C565        H573   1.084       .  S
C566        H574   1.082       .  S
C567        C568   1.352   1_545  D
C567        H575   1.088       .  S
C568        H576   1.083       .  S
C569        C570   1.349       .  D
C569        H577   1.087       .  S
C570        H578   1.085       .  S
C579        C580   1.404       .  A
C579        C584   1.409       .  A
C579        C587   1.488       .  S
C580        C581   1.396       .  A
C580        H589   1.084       .  S
C581        C582   1.406       .  A
C581        H590   1.082       .  S
C582        C583   1.405       .  A
C582        C585   1.489       .  S
C583        C584   1.403       .  A
C583        H591   1.083       .  S
C584       H1368   1.080       .  S
C585        C586   1.346       .  D
C585        H593   1.087       .  S
C586        H594   1.086       .  S
C587        C588   1.352       .  D
C587        H595   1.088       .  S
C588        C813   1.533       .  S
C588       H1372   1.084       .  S
H592       C1360   1.081   1_545  S
H596       C1364   1.085   1_545  S
C597        C598   1.403       .  A
C597        C602   1.411       .  A
C597        C605   1.494       .  S
C598        C599   1.396       .  A
C598        H607   1.083       .  S
C599        C600   1.403       .  A
C599        H608   1.084       .  S
C600        C601   1.409       .  A
C600        C603   1.492       .  S
C601        C602   1.405       .  A
C601        H609   1.080       .  S
C602        H610   1.080       .  S
C603        C604   1.351       .  D
C603        H611   1.085       .  S
C604        H612   1.084       .  S
C605        C606   1.346       .  D
C605        H613   1.088       .  S
C606        H614   1.083       .  S
C615        C616   1.404       .  A
C615        C620   1.410       .  A
C615        C623   1.493       .  S
C616        C617   1.400       .  A
C616        H625   1.083       .  S
C617        C618   1.408       .  A
C617        H626   1.083       .  S
C618        C619   1.404       .  A
C618        C621   1.492       .  S
C619        C620   1.405       .  A
C619        H627   1.083       .  S
C620        H628   1.082       .  S
C621        C622   1.348       .  D
C621        H629   1.084       .  S
C622        C813   1.533       .  S
C622        H630   1.088       .  S
C623        C624   1.348       .  D
C623        H631   1.087       .  S
C624        H632   1.086       .  S
C633        C634   1.404       .  A
C633        C638   1.405       .  A
C633        C641   1.485       .  S
C634        C635   1.401       .  A
C634        H643   1.083       .  S
C635        C636   1.408       .  A
C635        H644   1.081       .  S
C636        C637   1.404       .  A
C636        C639   1.487       .  S
C637        C638   1.397       .  A
C637        H645   1.083       .  S
C638        H646   1.082       .  S
C639        C640   1.350       .  D
C639        H647   1.087       .  S
C640        H648   1.085       .  S
C641        C642   1.347       .  D
C641        H649   1.087       .  S
C642        H650   1.086       .  S
C651        C652   1.403       .  A
C651        C656   1.408       .  A
C651        C659   1.491       .  S
C652        C653   1.401       .  A
C652        H661   1.083       .  S
C653        C654   1.410       .  A
C653        H662   1.081       .  S
C654        C655   1.404       .  A
C654        C657   1.493       .  S
C655        C656   1.401       .  A
C655        H663   1.083       .  S
C656        H664   1.082       .  S
C657        C658   1.350       .  D
C657        H665   1.087       .  S
C658        H666   1.086       .  S
C659        C660   1.347       .  D
C659        H667   1.087       .  S
C660        H668   1.086       .  S
C669        C670   1.404       .  A
C669        C674   1.405       .  A
C669        C677   1.481       .  S
C670        C671   1.401       .  A
C670        H679   1.083       .  S
C671        C672   1.405       .  A
C671        H680   1.083       .  S
C672        C673   1.401       .  A
C672        C675   1.476       .  S
C673        C674   1.395       .  A
C673        H681   1.083       .  S
C674        H682   1.083       .  S
C675        C676   1.347       .  D
C675        H683   1.087       .  S
C676        H684   1.088       .  S
C677        C678   1.344       .  D
C677        H685   1.087       .  S
C678        H686   1.086       .  S
C687        C688   1.403       .  A
C687        C692   1.408       .  A
C687        C695   1.487       .  S
C688        C689   1.400       .  A
C688        H697   1.083       .  S
C689        C690   1.410       .  A
C689        H698   1.081       .  S
C690        C691   1.401       .  A
C690        C693   1.487       .  S
C691        C692   1.396       .  A
C691        H699   1.083       .  S
C692        H700   1.082       .  S
C693        C694   1.347       .  D
C693        H701   1.087       .  S
C694        H702   1.085       .  S
C695        C696   1.345       .  D
C695        H703   1.087       .  S
C696        H704   1.085       .  S
C705        C706   1.401       .  A
C705        C710   1.406       .  A
C705        C713   1.486       .  S
C706        C707   1.400       .  A
C706        H715   1.083       .  S
C707        C708   1.409       .  A
C707        H716   1.080       .  S
C708        C709   1.406       .  A
C708        C711   1.492       .  S
C709        C710   1.401       .  A
C709        H717   1.084       .  S
C710        H718   1.083       .  S
C711        C712   1.351       .  D
C711        H719   1.087       .  S
C712        H720   1.084       .  S
C713        C714   1.344       .  D
C713        H721   1.087       .  S
C714        H722   1.086       .  S
C723        C724   1.403       .  A
C723        C728   1.410       .  A
C723        C731   1.492       .  S
C724        C725   1.400       .  A
C724        H733   1.083       .  S
C725        C726   1.409       .  A
C725        H734   1.082       .  S
C726        C727   1.403       .  A
C726        C729   1.491       .  S
C727        C728   1.403       .  A
C727        H735   1.083       .  S
C728        H736   1.082       .  S
C729        C730   1.345       .  D
C729        H737   1.087       .  S
C730        H738   1.086       .  S
C731        C732   1.350       .  D
C731        H739   1.084       .  S
C732        H740   1.086       .  S
C741        C742   1.402       .  A
C741        C746   1.408       .  A
C741        C749   1.486       .  S
C742        C743   1.393       .  A
C742        H751   1.084       .  S
C743        C744   1.407       .  A
C743        H752   1.081       .  S
C744        C745   1.407       .  A
C744        C747   1.492       .  S
C745        C746   1.405       .  A
C745        H753   1.083       .  S
C746        H754   1.081       .  S
C747        C748   1.346       .  D
C747        H755   1.087       .  S
C748        H756   1.084       .  S
C749        C750   1.351       .  D
C749        H757   1.087       .  S
C750        H758   1.085       .  S
C759        C760   1.404       .  A
C759        C764   1.411       .  A
C759        C767   1.495       .  S
C760        C761   1.400       .  A
C760        H769   1.083       .  S
C761        C762   1.409       .  A
C761        H770   1.081       .  S
C762        C763   1.403       .  A
C762        C765   1.491       .  S
C763        C764   1.400       .  A
C763        H771   1.083       .  S
C764        H772   1.080       .  S
C765        C766   1.347       .  D
C765        H773   1.087       .  S
C766        H774   1.085       .  S
C767        C768   1.350       .  D
C767        H775   1.084       .  S
C768        H776   1.084       .  S
N777        C782   1.356   1_455  A
N777        C781   1.355       .  A
N777        H809   1.041   1_455  S
N778        C786   1.354       .  A
N779        C784   1.354   1_455  A
N779        C783   1.352       .  A
N779        H810   1.035       .  S
N780        C788   1.353       .  A
C781        C789   1.389       .  A
C781        C797   1.422       .  A
C782        C798   1.419       .  A
C782        C790   1.385       .  A
C783        C791   1.388       .  A
C783        C800   1.413       .  A
C784        C799   1.412       .  A
C784        C792   1.386       .  A
C785        C797   1.419       .  A
C785        C793   1.388       .  A
C786        C800   1.414       .  A
C786        C794   1.385       .  A
C787        C795   1.388       .  A
C787        C798   1.413       .  A
C788        C796   1.386       .  A
C788        C799   1.413       .  A
C789        C790   1.376   1_455  A
C789        H801   1.080       .  S
C790        H802   1.082       .  S
C791        C792   1.373   1_455  A
C791        H803   1.082       .  S
C792        H804   1.082       .  S
C793        H805   1.082       .  S
C794        H806   1.082       .  S
C795        H807   1.082       .  S
C796        H808   1.082       .  S
C797       C1490   1.491       .  S
C798       C1542   1.492       .  S
C799       C1524   1.488       .  S
C800       C1506   1.487       .  S
C811       C1452   1.527       .  S
C811       C1470   1.527       .  S
C811       C1488   1.534       .  S
C811       C1508   1.530       .  S
C812       C1416   1.527       .  S
C812       C1434   1.535       .  S
C812       C1526   1.533       .  S
C812       C1544   1.537       .  S
C813       C1344   1.533       .  S
C813       C1380   1.534       .  S
N814        C819   1.355       .  A
N814        C818   1.357       .  A
N814        H846   1.040       .  S
N815        C822   1.350       .  A
N815        C823   1.352       .  A
N816        C821   1.352       .  A
N816        C820   1.353       .  A
N816        H847   1.038       .  S
N817        C824   1.353       .  A
N817        C825   1.356       .  A
C818        C826   1.386       .  A
C818        C834   1.420       .  A
C819        C835   1.421       .  A
C819        C827   1.388       .  A
C820        C828   1.387       .  A
C820        C837   1.412       .  A
C821        C836   1.412       .  A
C821        C829   1.387       .  A
C822        C834   1.412       .  A
C822        C830   1.387       .  A
C823        C837   1.411       .  A
C823        C831   1.385       .  A
C824        C832   1.387       .  A
C824        C835   1.417       .  A
C825        C833   1.384       .  A
C825        C836   1.416       .  A
C826        C827   1.378       .  A
C826        H838   1.082       .  S
C827        H839   1.082       .  S
C828        C829   1.373       .  A
C828        H840   1.083       .  S
C829        H841   1.083       .  S
C830        C831   1.372       .  A
C830        H842   1.083       .  S
C831        H843   1.082       .  S
C832        C833   1.374       .  A
C832        H844   1.082       .  S
C833        H845   1.082       .  S
C834       C1310   1.491       .  S
C835       C1400   1.496       .  S
C836       C1382   1.490       .  S
C837       C1328   1.482       .  S
C848       C1290   1.530       .  S
C848       C1326   1.531       .  S
O849       Cu857   2.023       .  S
O849        C859   1.280       .  A
O850       Cu857   2.015   1_556  S
O850        C860   1.279       .  A
O851       Cu857   2.018       .  S
O851        C861   1.279       .  A
O852       Cu857   2.031   1_556  S
O852        C862   1.280       .  A
O853       Cu858   2.011   1_556  S
O853        C862   1.278       .  A
O854       Cu858   2.007       .  S
O854        C861   1.277       .  A
O855       Cu858   2.008   1_556  S
O855        C860   1.276       .  A
O856       Cu858   2.006       .  S
O856        C859   1.276       .  A
Cu857      Cu858   2.373       .  S
C859       C1254   1.478       .  S
C860       C1454   1.472       .  S
C861       C1238   1.476       .  S
C862       C1272   1.483       .  S
N863        C868   1.352   1_655  A
N863        C867   1.353       .  A
N863        H895   1.040       .  S
N864        C872   1.350       .  A
N865        C870   1.357       .  A
N865        C869   1.354   1_455  A
N865        H896   1.039   1_455  S
N866        C874   1.351       .  A
C867        C875   1.388       .  A
C867        C883   1.414       .  A
C868        C884   1.411       .  A
C868        C876   1.387       .  A
C869        C877   1.385       .  A
C869        C886   1.416       .  A
C870        C885   1.423       .  A
C870        C878   1.389       .  A
C871        C883   1.411       .  A
C871        C879   1.384       .  A
C872        C886   1.412       .  A
C872        C880   1.389       .  A
C873        C881   1.386       .  A
C873        C884   1.413       .  A
C874        C882   1.385       .  A
C874        C885   1.412       .  A
C875        C876   1.373   1_655  A
C875        H887   1.082       .  S
C876        H888   1.082       .  S
C877        C878   1.378   1_655  A
C877        H889   1.082       .  S
C878        H890   1.081       .  S
C879        H891   1.082       .  S
C880        H892   1.082       .  S
C881        H893   1.082       .  S
C882        H894   1.082       .  S
C883       C1200   1.488       .  S
C884       C1184   1.489       .  S
C885       C1164   1.496       .  S
C886       C1220   1.485       .  S
C897       C1148   1.532       .  S
C897       C1166   1.531       .  S
C897       C1182   1.531       .  S
C897       C1236   1.525       .  S
C898       C1112   1.533       .  S
C898       C1130   1.533       .  S
C898       C1202   1.531       .  S
C898       C1218   1.533       .  S
C899       C1058   1.530       .  S
C899       C1076   1.534       .  S
C900        C984   1.526       .  S
C900       C1022   1.528       .  S
N901        C906   1.353       .  A
N901        C905   1.353       .  A
N901        H933   1.040       .  S
N902        C909   1.353       .  A
N902        C910   1.352       .  A
N903        C908   1.357       .  A
N903        C907   1.355       .  A
N903        H934   1.040       .  S
N904        C911   1.353       .  A
N904        C912   1.352       .  A
C905        C913   1.387       .  A
C905        C921   1.414       .  A
C906        C922   1.414       .  A
C906        C914   1.386       .  A
C907        C915   1.388       .  A
C907        C924   1.421       .  A
C908        C923   1.422       .  A
C908        C916   1.386       .  A
C909        C921   1.414       .  A
C909        C917   1.385       .  A
C910        C924   1.415       .  A
C910        C918   1.388       .  A
C911        C919   1.385       .  A
C911        C922   1.410       .  A
C912        C920   1.388       .  A
C912        C923   1.415       .  A
C913        C914   1.374       .  A
C913        H925   1.082       .  S
C914        H926   1.082       .  S
C915        C916   1.375       .  A
C915        H927   1.081       .  S
C916        H928   1.082       .  S
C917        C918   1.375       .  A
C917        H929   1.082       .  S
C918        H930   1.082       .  S
C919        C920   1.370       .  A
C919        H931   1.082       .  S
C920        H932   1.082       .  S
C921       C1074   1.490       .  S
C922       C1020   1.487       .  S
C923       C1004   1.499       .  S
C924       C1092   1.489       .  S
O935       Cu943   2.014   1_554  S
O935        C945   1.278       .  A
O936       Cu943   2.010       .  S
O936        C946   1.278       .  A
O937       Cu943   2.009   1_554  S
O937        C947   1.277       .  A
O938       Cu943   2.006       .  S
O938        C948   1.278       .  A
O939       Cu944   2.012       .  S
O939        C948   1.277       .  A
O940       Cu944   2.012   1_554  S
O940        C947   1.278       .  A
O941       Cu944   2.020       .  S
O941        C946   1.279       .  A
O942       Cu944   2.025   1_554  S
O942        C945   1.280       .  A
Cu943      Cu944   2.374       .  S
C945       C1128   1.482       .  S
C946       C1346   1.478       .  S
C947       C1056   1.475       .  S
C948       C1418   1.475       .  S
O949       Cu957   1.997       .  S
O949        C959   1.275       .  A
O950       Cu957   1.996       .  S
O950        C960   1.275       .  A
O951       Cu957   2.018       .  S
O951        C961   1.280       .  A
O952       Cu957   2.017       .  S
O952        C962   1.278       .  A
O953       Cu958   2.014       .  S
O953        C962   1.278       .  A
O954       Cu958   2.013       .  S
O954        C961   1.277       .  A
O955       Cu958   2.031       .  S
O955        C960   1.281       .  A
O956       Cu958   2.026       .  S
O956        C959   1.281       .  A
Cu957      Cu958   2.373       .  S
C959        C986   1.476       .  S
C960       C1472   1.476       .  S
C961       C1146   1.480       .  S
C962       C1292   1.478       .  S
O963       Cu971   2.003       .  S
O963        C973   1.276       .  A
O964       Cu971   1.998       .  S
O964        C974   1.275       .  A
O965       Cu971   2.022       .  S
O965        C975   1.280       .  A
O966       Cu971   2.024       .  S
O966        C976   1.279       .  A
O967       Cu972   2.009       .  S
O967        C976   1.278       .  A
O968       Cu972   2.006       .  S
O968        C975   1.277       .  A
O969       Cu972   2.040       .  S
O969        C974   1.282       .  A
O970       Cu972   2.034       .  S
O970        C973   1.281       .  A
Cu971      Cu972   2.373       .  S
C973       C1436   1.480       .  S
C974       C1038   1.479       .  S
C975       C1362   1.477       .  S
C976       C1110   1.480       .  S
C977        C978   1.401       .  A
C977        C982   1.409       .  A
C977        C985   1.486       .  S
C978        C979   1.398       .  A
C978        H987   1.083       .  S
C979        C980   1.409       .  A
C979        H988   1.082       .  S
C980        C981   1.402       .  A
C980        C983   1.487       .  S
C981        C982   1.401       .  A
C981        H989   1.083       .  S
C982        H990   1.082       .  S
C983        C984   1.347       .  D
C984        H992   1.088       .  S
C985        C986   1.343       .  D
C985        H993   1.087       .  S
C986        H994   1.086       .  S
C995        C996   1.403       .  A
C995       C1000   1.406       .  A
C995       C1003   1.485       .  S
C996        C997   1.402       .  A
C996       H1005   1.083       .  S
C997        C998   1.407       .  A
C997       H1006   1.083       .  S
C998        C999   1.402       .  A
C998       C1001   1.482       .  S
C999       C1000   1.399       .  A
C999       H1007   1.083       .  S
C1000      H1008   1.083       .  S
C1001      C1002   1.352       .  D
C1001      H1009   1.083       .  S
C1002      H1010   1.087       .  S
C1003      C1004   1.346       .  D
C1003      H1011   1.085       .  S
C1004      H1012   1.087       .  S
C1013      C1014   1.404       .  A
C1013      C1018   1.408       .  A
C1013      C1021   1.486       .  S
C1014      C1015   1.396       .  A
C1014      H1023   1.084       .  S
C1015      C1016   1.405       .  A
C1015      H1024   1.082       .  S
C1016      C1017   1.404       .  A
C1016      C1019   1.485       .  S
C1017      C1018   1.401       .  A
C1017      H1025   1.083       .  S
C1018      H1026   1.080       .  S
C1019      C1020   1.345       .  D
C1019      H1027   1.087       .  S
C1020      H1028   1.086       .  S
C1021      C1022   1.352       .  D
C1021      H1029   1.087       .  S
C1022      H1030   1.084       .  S
C1031      C1032   1.403       .  A
C1031      C1036   1.408       .  A
C1031      C1039   1.488       .  S
C1032      C1033   1.404       .  A
C1033      C1034   1.409       .  A
C1033      H1042   1.083       .  S
C1034      C1035   1.401       .  A
C1034      C1037   1.487       .  S
C1035      C1036   1.398       .  A
C1035      H1043   1.083       .  S
C1036      H1044   1.083       .  S
C1037      C1038   1.343       .  D
C1037      H1045   1.087       .  S
C1038      H1046   1.087       .  S
C1039      C1040   1.347       .  D
C1040      H1048   1.088       .  S
C1049      C1050   1.401       .  A
C1049      C1054   1.405       .  A
C1049      C1057   1.480       .  S
C1050      C1051   1.395       .  A
C1050      H1059   1.084       .  S
C1051      C1052   1.407       .  A
C1051      H1060   1.081       .  S
C1052      C1053   1.406       .  A
C1052      C1055   1.488       .  S
C1053      C1054   1.403       .  A
C1053      H1061   1.083       .  S
C1054      H1062   1.083       .  S
C1055      C1056   1.347       .  D
C1055      H1063   1.087       .  S
C1056      H1064   1.085       .  S
C1057      C1058   1.348       .  D
C1057      H1065   1.088       .  S
C1058      H1066   1.086       .  S
C1067      C1068   1.405       .  A
C1067      C1072   1.407       .  A
C1067      C1075   1.489       .  S
C1068      C1069   1.396       .  A
C1068      H1077   1.084       .  S
C1069      C1070   1.405       .  A
C1069      H1078   1.082       .  S
C1070      C1071   1.406       .  A
C1070      C1073   1.490       .  S
C1071      C1072   1.404       .  A
C1071      H1079   1.083       .  S
C1072      H1080   1.080       .  S
C1073      C1074   1.347       .  D
C1073      H1081   1.087       .  S
C1074      H1082   1.086       .  S
C1075      C1076   1.355       .  D
C1075      H1083   1.088       .  S
C1076      H1084   1.084       .  S
C1085      C1086   1.403       .  A
C1085      C1090   1.405       .  A
C1085      C1093   1.484       .  S
C1086      C1087   1.402       .  A
C1086      H1095   1.083       .  S
C1087      C1088   1.408       .  A
C1087      H1096   1.082       .  S
C1088      C1089   1.403       .  A
C1088      C1091   1.485       .  S
C1089      C1090   1.397       .  A
C1089      H1097   1.083       .  S
C1090      H1098   1.083       .  S
C1091      C1092   1.344       .  D
C1091      H1099   1.087       .  S
C1092      H1100   1.085       .  S
C1093      C1094   1.347       .  D
C1093      H1101   1.086       .  S
C1094      H1102   1.088       .  S
C1103      C1104   1.405       .  A
C1103      C1108   1.407       .  A
C1103      C1111   1.489       .  S
C1104      C1105   1.399       .  A
C1104      H1113   1.084       .  S
C1105      C1106   1.406       .  A
C1105      H1114   1.081       .  S
C1106      C1107   1.406       .  A
C1106      C1109   1.490       .  S
C1107      C1108   1.401       .  A
C1107      H1115   1.083       .  S
C1108      H1116   1.081       .  S
C1109      C1110   1.349       .  D
C1109      H1117   1.087       .  S
C1110      H1118   1.085       .  S
C1111      C1112   1.350       .  D
C1111      H1119   1.083       .  S
C1112      H1120   1.084       .  S
C1121      C1122   1.403       .  A
C1121      C1126   1.406       .  A
C1121      C1129   1.486       .  S
C1122      C1123   1.397       .  A
C1122      H1131   1.084       .  S
C1123      C1124   1.406       .  A
C1123      H1132   1.082       .  S
C1124      C1125   1.408       .  A
C1124      C1127   1.492       .  S
C1125      C1126   1.406       .  A
C1125      H1133   1.083       .  S
C1126      H1134   1.082       .  S
C1127      C1128   1.350       .  D
C1127      H1135   1.087       .  S
C1128      H1136   1.085       .  S
C1129      C1130   1.351       .  D
C1129      H1137   1.088       .  S
C1130      H1138   1.086       .  S
C1139      C1140   1.406       .  A
C1139      C1144   1.404       .  A
C1139      C1147   1.483       .  S
C1140      C1141   1.405       .  A
C1140      H1149   1.082       .  S
C1141      C1142   1.409       .  A
C1141      H1150   1.082       .  S
C1142      C1143   1.400       .  A
C1142      C1145   1.485       .  S
C1143      C1144   1.395       .  A
C1143      H1151   1.084       .  S
C1144      H1152   1.084       .  S
C1145      C1146   1.344       .  D
C1145      H1153   1.087       .  S
C1146      H1154   1.086       .  S
C1147      C1148   1.354       .  D
C1147      H1155   1.088       .  S
C1148      H1156   1.086       .  S
C1157      C1158   1.403       .  A
C1157      C1162   1.408       .  A
C1157      C1165   1.493       .  S
C1158      C1159   1.406       .  A
C1158      H1167   1.083       .  S
C1159      C1160   1.412       .  A
C1159      H1168   1.081       .  S
C1160      C1161   1.402       .  A
C1160      C1163   1.494       .  S
C1161      C1162   1.396       .  A
C1161      H1169   1.083       .  S
C1162      H1170   1.083       .  S
C1163      C1164   1.346       .  D
C1163      H1171   1.087       .  S
C1164      H1172   1.084       .  S
C1165      C1166   1.347       .  D
C1165      H1173   1.086       .  S
C1166      H1174   1.087       .  S
C1175      C1176   1.405       .  A
C1175      C1180   1.406       .  A
C1175      C1183   1.482       .  S
C1176      C1177   1.403       .  A
C1176      H1185   1.083       .  S
C1177      C1178   1.403       .  A
C1177      H1186   1.083       .  S
C1178      C1179   1.400       .  A
C1178      C1181   1.471       .  S
C1179      C1180   1.393       .  A
C1179      H1187   1.084       .  S
C1180      H1188   1.083       .  S
C1181      C1182   1.348       .  D
C1181      H1189   1.087       .  S
C1182      H1190   1.087       .  S
C1183      C1184   1.345       .  D
C1183      H1191   1.086       .  S
C1184      H1192   1.087       .  S
C1193      C1194   1.403       .  A
C1193      C1198   1.408       .  A
C1193      C1201   1.484       .  S
C1194      C1195   1.402       .  A
C1194      H1203   1.083       .  S
C1195      C1196   1.407       .  A
C1195      H1204   1.083       .  S
C1196      C1197   1.399       .  A
C1196      C1199   1.478       .  S
C1197      C1198   1.394       .  A
C1197      H1205   1.084       .  S
C1198      H1206   1.082       .  S
C1199      C1200   1.343       .  D
C1199      H1207   1.088       .  S
C1200      H1208   1.086       .  S
C1201      C1202   1.348       .  D
C1201      H1209   1.087       .  S
C1202      H1210   1.087       .  S
C1211      C1212   1.401       .  A
C1211      C1216   1.409       .  A
C1211      C1219   1.485       .  S
C1212      C1213   1.399       .  A
C1212      H1221   1.083       .  S
C1213      C1214   1.409       .  A
C1213      H1222   1.082       .  S
C1214      C1215   1.402       .  A
C1214      C1217   1.486       .  S
C1215      C1216   1.398       .  A
C1215      H1223   1.084       .  S
C1216      H1224   1.082       .  S
C1217      C1218   1.346       .  D
C1217      H1225   1.081       .  S
C1218      H1226   1.086       .  S
C1219      C1220   1.343       .  D
C1219      H1227   1.087       .  S
C1220      H1228   1.086       .  S
C1229      C1230   1.405       .  A
C1229      C1234   1.408       .  A
C1229      C1237   1.490       .  S
C1230      C1231   1.401       .  A
C1230      H1239   1.083       .  S
C1231      C1232   1.403       .  A
C1231      H1240   1.083       .  S
C1232      C1233   1.407       .  A
C1232      C1235   1.488       .  S
C1233      C1234   1.397       .  A
C1233      H1241   1.082       .  S
C1234      H1242   1.081       .  S
C1235      C1236   1.348       .  D
C1235      H1243   1.087       .  S
C1236      H1244   1.086       .  S
C1237      C1238   1.347       .  D
C1237      H1245   1.087       .  S
C1238      H1246   1.084       .  S
C1247      C1248   1.403       .  A
C1247      C1252   1.406       .  A
C1247      C1255   1.485       .  S
C1248      C1249   1.399       .  A
C1248      H1257   1.084       .  S
C1249      C1250   1.407       .  A
C1249      H1258   1.082       .  S
C1250      C1251   1.405       .  A
C1250      C1253   1.489       .  S
C1251      C1252   1.401       .  A
C1251      H1259   1.083       .  S
C1252      H1260   1.082   1_565  S
C1253      C1254   1.346       .  D
C1253      H1261   1.087       .  S
C1254      H1262   1.086       .  S
C1255      C1256   1.351   1_565  D
C1255      H1263   1.087       .  S
C1256      H1264   1.086       .  S
C1265      C1266   1.403       .  A
C1265      C1270   1.409       .  A
C1265      C1273   1.494       .  S
C1266      C1267   1.402       .  A
C1266      H1275   1.083       .  S
C1267      C1268   1.409       .  A
C1267      H1276   1.081       .  S
C1268      C1269   1.405       .  A
C1268      C1271   1.495       .  S
C1269      C1270   1.403       .  A
C1269      H1277   1.083       .  S
C1270      H1278   1.082       .  S
C1271      C1272   1.349       .  D
C1271      H1279   1.087       .  S
C1272      H1280   1.085       .  S
C1273      C1274   1.349       .  D
C1273      H1281   1.087       .  S
C1274      H1282   1.086       .  S
C1283      C1284   1.406       .  A
C1283      C1288   1.407       .  A
C1283      C1291   1.487       .  S
C1284      C1285   1.402       .  A
C1284      H1293   1.083       .  S
C1285      C1286   1.404       .  A
C1285      H1294   1.083       .  S
C1286      C1287   1.401       .  A
C1286      C1289   1.478       .  S
C1287      C1288   1.397       .  A
C1287      H1295   1.083       .  S
C1288      H1296   1.082       .  S
C1289      C1290   1.348       .  D
C1289      H1297   1.087       .  S
C1290      H1298   1.087       .  S
C1291      C1292   1.347       .  D
C1291      H1299   1.087       .  S
C1292      H1300   1.086       .  S
C1301      C1302   1.403       .  A
C1301      C1306   1.411       .  A
C1301      C1309   1.495       .  S
C1302      C1303   1.400       .  A
C1302      H1311   1.083       .  S
C1303      C1304   1.408       .  A
C1303      H1312   1.082       .  S
C1304      C1305   1.403       .  A
C1304      C1307   1.492       .  S
C1305      C1306   1.402       .  A
C1305      H1313   1.083       .  S
C1306      H1314   1.081       .  S
C1307      C1308   1.348       .  D
C1307      H1315   1.087       .  S
C1308      H1316   1.087       .  S
C1309      C1310   1.346       .  D
C1309      H1317   1.087       .  S
C1310      H1318   1.084       .  S
C1319      C1320   1.407       .  A
C1319      C1324   1.405       .  A
C1319      C1327   1.486       .  S
C1320      C1321   1.404       .  A
C1320      H1329   1.083       .  S
C1321      C1322   1.407       .  A
C1321      H1330   1.082       .  S
C1322      C1323   1.402       .  A
C1322      C1325   1.481       .  S
C1323      C1324   1.392       .  A
C1323      H1331   1.084       .  S
C1324      H1332   1.082       .  S
C1325      C1326   1.351       .  D
C1325      H1333   1.088       .  S
C1326      H1334   1.085       .  S
C1327      C1328   1.346       .  D
C1327      H1335   1.087       .  S
C1328      H1336   1.085       .  S
C1337      C1338   1.406       .  A
C1337      C1342   1.406       .  A
C1337      C1345   1.490       .  S
C1338      C1339   1.405       .  A
C1338      H1347   1.083       .  S
C1339      C1340   1.407       .  A
C1339      H1348   1.082       .  S
C1340      C1341   1.403       .  A
C1340      C1343   1.486       .  S
C1341      C1342   1.395       .  A
C1341      H1349   1.084       .  S
C1342      H1350   1.082       .  S
C1343      C1344   1.352       .  D
C1343      H1351   1.088       .  S
C1344      H1352   1.085       .  S
C1345      C1346   1.348       .  D
C1345      H1353   1.087       .  S
C1346      H1354   1.085       .  S
C1355      C1356   1.404       .  A
C1355      C1360   1.408       .  A
C1355      C1363   1.490       .  S
C1356      C1357   1.397       .  A
C1356      H1365   1.083       .  S
C1357      C1358   1.407       .  A
C1357      H1366   1.082       .  S
C1358      C1359   1.406       .  A
C1358      C1361   1.491       .  S
C1359      C1360   1.404       .  A
C1359      H1367   1.083       .  S
C1361      C1362   1.347       .  D
C1361      H1369   1.087       .  S
C1362      H1370   1.085       .  S
C1363      C1364   1.352       .  D
C1363      H1371   1.087       .  S
C1373      C1374   1.403       .  A
C1373      C1378   1.411       .  A
C1373      C1381   1.492       .  S
C1374      C1375   1.399       .  A
C1374      H1383   1.083       .  S
C1375      C1376   1.404       .  A
C1375      H1384   1.084       .  S
C1376      C1377   1.406       .  A
C1376      C1379   1.487       .  S
C1377      C1378   1.402       .  A
C1377      H1385   1.082       .  S
C1378      H1386   1.081       .  S
C1379      C1380   1.351       .  D
C1379      H1387   1.085       .  S
C1380      H1388   1.086       .  S
C1381      C1382   1.345       .  D
C1381      H1389   1.087       .  S
C1382      H1390   1.085       .  S
C1391      C1392   1.404       .  A
C1391      C1396   1.409       .  A
C1391      C1399   1.491       .  S
C1392      C1393   1.399       .  A
C1392      H1401   1.083       .  S
C1393      C1394   1.406       .  A
C1393      H1402   1.083       .  S
C1394      C1395   1.404       .  A
C1394      C1397   1.488       .  S
C1395      C1396   1.404       .  A
C1395      H1403   1.083       .  S
C1396      H1404   1.082       .  S
C1397      C1398   1.349       .  D
C1397      H1405   1.084       .  S
C1398      H1406   1.088       .  S
C1399      C1400   1.347       .  D
C1399      H1407   1.087       .  S
C1400      H1408   1.085       .  S
C1409      C1410   1.403       .  A
C1409      C1414   1.406       .  A
C1409      C1417   1.483       .  S
C1410      C1411   1.398       .  A
C1410      H1419   1.083       .  S
C1411      C1412   1.407       .  A
C1411      H1420   1.081       .  S
C1412      C1413   1.404       .  A
C1412      C1415   1.483       .  S
C1413      C1414   1.397       .  A
C1413      H1421   1.084       .  S
C1414      H1422   1.082       .  S
C1415      C1416   1.350       .  D
C1415      H1423   1.088       .  S
C1416      H1424   1.086       .  S
C1417      C1418   1.345       .  D
C1417      H1425   1.087       .  S
C1418      H1426   1.086       .  S
C1427      C1428   1.404       .  A
C1427      C1432   1.410       .  A
C1427      C1435   1.494       .  S
C1428      C1429   1.402       .  A
C1428      H1437   1.083       .  S
C1429      C1430   1.409       .  A
C1429      H1438   1.082       .  S
C1430      C1431   1.402       .  A
C1430      C1433   1.491       .  S
C1431      C1432   1.400       .  A
C1431      H1439   1.083       .  S
C1432      H1440   1.081       .  S
C1433      C1434   1.348       .  D
C1433      H1441   1.087       .  S
C1434      H1442   1.087       .  S
C1435      C1436   1.347       .  D
C1435      H1443   1.087       .  S
C1436      H1444   1.085       .  S
C1445      C1446   1.405       .  A
C1445      C1450   1.405       .  A
C1445      C1453   1.482       .  S
C1446      C1447   1.401       .  A
C1446      H1455   1.083       .  S
C1447      C1448   1.406       .  A
C1447      H1456   1.083       .  S
C1448      C1449   1.401       .  A
C1448      C1451   1.480       .  S
C1449      C1450   1.396       .  A
C1449      H1457   1.083       .  S
C1450      H1458   1.083       .  S
C1451      C1452   1.347       .  D
C1451      H1459   1.087       .  S
C1452      H1460   1.087       .  S
C1453      C1454   1.344       .  D
C1453      H1461   1.087       .  S
C1454      H1462   1.086       .  S
C1463      C1464   1.402       .  A
C1463      C1468   1.407       .  A
C1463      C1471   1.487       .  S
C1464      C1465   1.400       .  A
C1464      H1473   1.083       .  S
C1465      C1466   1.411       .  A
C1465      H1474   1.080       .  S
C1466      C1467   1.404       .  A
C1466      C1469   1.491       .  S
C1467      C1468   1.397       .  A
C1467      H1475   1.084       .  S
C1468      H1476   1.082       .  S
C1469      C1470   1.349       .  D
C1469      H1477   1.087       .  S
C1470      H1478   1.083       .  S
C1471      C1472   1.345       .  D
C1471      H1479   1.087       .  S
C1472      H1480   1.086       .  S
C1481      C1482   1.405       .  A
C1481      C1486   1.409       .  A
C1481      C1489   1.494       .  S
C1482      C1483   1.402       .  A
C1482      H1491   1.083       .  S
C1483      C1484   1.409       .  A
C1483      H1492   1.080       .  S
C1484      C1485   1.404       .  A
C1484      C1487   1.493       .  S
C1485      C1486   1.399       .  A
C1485      H1493   1.083       .  S
C1486      H1494   1.080       .  S
C1487      C1488   1.350       .  D
C1487      H1495   1.087       .  S
C1488      H1496   1.084       .  S
C1489      C1490   1.348       .  D
C1489      H1497   1.087       .  S
C1490      H1498   1.083       .  S
C1499      C1500   1.400       .  A
C1499      C1504   1.410       .  A
C1499      C1507   1.487       .  S
C1500      C1501   1.396       .  A
C1500      H1509   1.084       .  S
C1501      C1502   1.409       .  A
C1501      H1510   1.081       .  S
C1502      C1503   1.404       .  A
C1502      C1505   1.490       .  S
C1503      C1504   1.403       .  A
C1503      H1511   1.083       .  S
C1504      H1512   1.082       .  S
C1505      C1506   1.344       .  D
C1505      H1513   1.087       .  S
C1506      H1514   1.086       .  S
C1507      C1508   1.347       .  D
C1507      H1515   1.084       .  S
C1508      H1516   1.087       .  S
C1517      C1518   1.404       .  A
C1517      C1522   1.408       .  A
C1517      C1525   1.488       .  S
C1518      C1519   1.394       .  A
C1518      H1527   1.084       .  S
C1519      C1520   1.405       .  A
C1519      H1528   1.082       .  S
C1520      C1521   1.405       .  A
C1520      C1523   1.487       .  S
C1521      C1522   1.403       .  A
C1521      H1529   1.083       .  S
C1522      H1530   1.080       .  S
C1523      C1524   1.346       .  D
C1523      H1531   1.087       .  S
C1524      H1532   1.086       .  S
C1525      C1526   1.353       .  D
C1525      H1533   1.087       .  S
C1526      H1534   1.084       .  S
C1535      C1536   1.404       .  A
C1535      C1540   1.411       .  A
C1535      C1543   1.495       .  S
C1536      C1537   1.399       .  A
C1536      H1545   1.083       .  S
C1537      C1538   1.408       .  A
C1537      H1546   1.081       .  S
C1538      C1539   1.403       .  A
C1538      C1541   1.491       .  S
C1539      C1540   1.401       .  A
C1539      H1547   1.083       .  S
C1540      H1548   1.080       .  S
C1541      C1542   1.347       .  D
C1541      H1549   1.087       .  S
C1542      H1550   1.084       .  S
C1543      C1544   1.350       .  D
C1543      H1551   1.084       .  S
C1544      H1552   1.083       .  S
