geometry optimzed in LAMMPS
_audit_creation_date              2020-11-30 
_audit_creation_method            'lammps2cif' 
_symmetry_space_group_name_H-M    'P1' 
_symmetry_Int_Tables_number       1 
_symmetry_cell_setting            triclinic 
loop_ 
_symmetry_equiv_pos_as_xyz 
  x,y,z 
_cell_length_a                    31.10228447573506 
_cell_length_b                    30.96516871634629 
_cell_length_c                    30.99293812289326 
_cell_angle_alpha                 89.36032719717709 
_cell_angle_beta                  90.23779576300527 
_cell_angle_gamma                 89.70240865990132 
loop_ 
_atom_site_label 
_atom_site_type_symbol 
_atom_site_fract_x 
_atom_site_fract_y 
_atom_site_fract_z 
_atom_site_charge 
C1          C  0.12165443  0.85721245  0.46805575     0.01770
C2          C  0.09941607  0.83889817  0.50478636     0.01770
C3          C  0.11999411  0.84141150  0.54666973     0.01770
C4          C  0.15391279  0.87221523  0.55269084     0.01770
C5          C  0.16504681  0.90005674  0.51833245     0.01770
C6          C  0.15251887  0.88702988  0.47786412     0.01770
C7          C  0.13015548  0.14651122  0.46170354     0.01770
C8          C  0.15548167  0.10711875  0.46370510     0.01770
C9          C  0.16833992  0.08855952  0.50432854     0.01770
C10         C  0.16132176  0.11265583  0.54295990     0.01770
C11         C  0.12610234  0.14341731  0.54151849     0.01770
C12         C  0.10712964  0.15668833  0.50081821     0.01770
C13         C  0.86271307  0.10173915  0.45926309     0.01770
C14         C  0.89992757  0.12811921  0.46035621     0.01770
C15         C  0.91976372  0.14181980  0.50041681     0.01770
C16         C  0.89564222  0.13297922  0.53910777     0.01770
C17         C  0.85817333  0.10480655  0.53802194     0.01770
C18         C  0.84840113  0.08321269  0.49834390     0.01770
C19         C  0.89087211  0.84308739  0.53660772     0.01770
C20         C  0.91238537  0.83020864  0.49796731     0.01770
C21         C  0.89505925  0.84273725  0.45709134     0.01770
C22         C  0.86140624  0.87436865  0.45527333     0.01770
C23         C  0.84755272  0.89466126  0.49379817     0.01770
C24         C  0.85687832  0.87447291  0.53461731     0.01770
C25         C  0.54406623  0.14218273  0.11229486     0.01770
C26         C  0.50098869  0.15219597  0.09511339     0.01770
C27         C  0.46496293  0.13618062  0.11985764     0.01770
C28         C  0.46999788  0.10387365  0.15322287     0.01770
C29         C  0.51107237  0.08459827  0.15862069     0.01770
C30         C  0.54761394  0.10658080  0.14300716     0.01770
C31         C  0.54292307  0.14802570  0.89381179     0.01770
C32         C  0.50402175  0.16753330  0.90828927     0.01770
C33         C  0.46435401  0.15738236  0.88610509     0.01770
C34         C  0.46378268  0.11746963  0.86145310     0.01770
C35         C  0.50240208  0.09493056  0.84985812     0.01770
C36         C  0.54244856  0.11212708  0.86520946     0.01770
C37         C  0.54228305  0.87542118  0.14465272     0.01770
C38         C  0.50298923  0.89616177  0.15546475     0.01770
C39         C  0.46338039  0.87382488  0.14815271     0.01770
C40         C  0.46397472  0.84150241  0.11432749     0.01770
C41         C  0.50401952  0.82677504  0.09637226     0.01770
C42         C  0.54277187  0.83582458  0.12044002     0.01770
C43         C  0.54098481  0.88438269  0.84821477     0.01770
C44         C  0.50294417  0.90952856  0.83757991     0.01770
C45         C  0.46304242  0.89257726  0.85316835     0.01770
C46         C  0.46324733  0.86319125  0.88982335     0.01770
C47         C  0.50335210  0.84516434  0.90596137     0.01770
C48         C  0.54019010  0.84793284  0.87822281     0.01770
C49         C  0.10657734  0.53798416  0.85307996     0.01770
C50         C  0.08920786  0.49879033  0.83602981     0.01770
C51         C  0.10841485  0.45841604  0.84935678     0.01770
C52         C  0.13394152  0.45798446  0.88797516     0.01770
C53         C  0.14364136  0.49649078  0.90962179     0.01770
C54         C  0.13620649  0.53624224  0.88832439     0.01770
C55         C  0.14590578  0.45784443  0.11701161     0.01770
C56         C  0.15773111  0.49757942  0.09726029     0.01770
C57         C  0.15061189  0.53718457  0.11934736     0.01770
C58         C  0.12049748  0.53664732  0.15457978     0.01770
C59         C  0.10386780  0.49647899  0.17106294     0.01770
C60         C  0.12404965  0.45665548  0.15784065     0.01770
C61         C  0.89666444  0.45754310  0.15260685     0.01770
C62         C  0.91603780  0.49831939  0.16297351     0.01770
C63         C  0.89689587  0.53642020  0.14519014     0.01770
C64         C  0.87490306  0.53343675  0.10488111     0.01770
C65         C  0.86850699  0.49244716  0.08572596     0.01770
C66         C  0.87484781  0.45497657  0.11178946     0.01770
C67         C  0.88120840  0.45509407  0.84744814     0.01770
C68         C  0.90233106  0.49415487  0.83578059     0.01770
C69         C  0.88275779  0.53444235  0.84588066     0.01770
C70         C  0.85253610  0.53419717  0.88082186     0.01770
C71         C  0.83712706  0.49450379  0.89924287     0.01770
C72         C  0.84439534  0.45494075  0.87596161     0.01770
O73         O  0.09052631  0.97506272  0.76785728    -0.80660
O74         O  0.18716311  0.04571545  0.89830283    -0.80680
O75         O  0.20409147  0.90683969  0.84736449    -0.80690
O76         O  0.15642618  0.08854662  0.79537787    -0.80630
O77         O  0.17960599  0.95390431  0.89383002    -0.80750
O78         O  0.11506521  0.03842964  0.82481774    -0.80670
O79         O  0.21808891  0.09211911  0.85337740    -0.80660
O80         O  0.13328806  0.92974478  0.80431306    -0.80690
C81         C  0.09619221  0.93894571  0.78687886     1.09030
C82         C  0.19960404  0.08379247  0.88891170     1.08920
C83         C  0.18812473  0.91515437  0.88395457     1.09060
C84         C  0.12126602  0.07743396  0.81353948     1.08930
O85         O  0.14576727  0.03913570  0.73619330    -0.80660
O86         O  0.26827158  0.95176942  0.86250442    -0.80730
O87         O  0.19987204  0.89631945  0.75790593    -0.80670
O88         O  0.27633626  0.04545871  0.79892508    -0.80650
O89         O  0.27379988  0.03745458  0.86938487    -0.80700
O90         O  0.17122556  0.95950698  0.73786924    -0.80670
O91         O  0.21550829  0.04326535  0.73624529    -0.80630
O92         O  0.26350422  0.94837430  0.79130867    -0.80700
Co93       Co  0.14441237  0.99649260  0.78684368     1.51530
Co94       Co  0.22416211  0.99737367  0.87827567     1.51690
Co95       Co  0.19964448  0.94474716  0.79549509     1.51570
Co96       Co  0.21626717  0.06343370  0.79621324     1.51470
O97         O  0.19895183  0.00482841  0.81842212    -1.42590
C98         C  0.18049696  0.04775503  0.71639396     1.08960
C99         C  0.28549885  0.94435204  0.82591019     1.09050
C100        C  0.18500575  0.92141825  0.72852734     1.08990
C101        C  0.29430447  0.04749786  0.83525366     1.08960
O102        O  0.04876116  0.10287919  0.82650467    -0.80660
O103        O  0.96160869  0.17368889  0.89228929    -0.80680
O104        O  0.09755131  0.20441922  0.84803781    -0.80690
O105        O  0.91124505  0.15025056  0.79079569    -0.80630
O106        O  0.05215891  0.17159520  0.89063405    -0.80750
O107        O  0.95584659  0.10687845  0.82573307    -0.80670
O108        O  0.91527188  0.20758340  0.84991863    -0.80660
O109        O  0.09437225  0.14417312  0.79143868    -0.80690
C110        C  0.08651016  0.10996922  0.81280931     1.09030
C111        C  0.92348007  0.18629404  0.88426468     1.08920
C112        C  0.08981312  0.18457112  0.88340172     1.09060
C113        C  0.91848223  0.11465804  0.81044748     1.08930
O114        O  0.96227789  0.13551857  0.73739946    -0.80660
O115        O  0.05004476  0.26342181  0.85932061    -0.80730
O116        O  0.04833007  0.19956814  0.72949764    -0.80670
O117        O  0.96131343  0.26767426  0.79390714    -0.80650
O118        O  0.96571305  0.26319950  0.86409057    -0.80700
O119        O  0.04481331  0.12957901  0.73540833    -0.80670
O120        O  0.95847887  0.20542480  0.72969964    -0.80630
O121        O  0.05048139  0.26304327  0.78864515    -0.80700
Co122      Co  0.00321659  0.12332477  0.78563786     1.51530
Co123      Co  0.00743765  0.21385964  0.87228580     1.51690
Co124      Co  0.06691681  0.20255703  0.79000288     1.51570
Co125      Co  0.94278031  0.20718435  0.79150160     1.51470
O126        O  0.00490940  0.18625949  0.81038406    -1.42590
C127        C  0.95522620  0.16831866  0.71360407     1.08960
C128        C  0.05690429  0.28260912  0.82320097     1.09050
C129        C  0.05177955  0.16307268  0.71235961     1.08990
C130        C  0.95714372  0.28508613  0.83030976     1.08960
O131        O  0.04870826  0.89382669  0.18059093    -0.80660
O132        O  0.98065946  0.76978611  0.08461324    -0.80680
O133        O  0.09700544  0.78814159  0.15410938    -0.80690
O134        O  0.91258387  0.84126511  0.20109583    -0.80630
O135        O  0.04902279  0.82100512  0.11233491    -0.80750
O136        O  0.95934164  0.88796593  0.17623098    -0.80670
O137        O  0.93450380  0.79957516  0.13050951    -0.80660
O138        O  0.09680867  0.85032532  0.21155471    -0.80690
C139        C  0.08733236  0.88461969  0.19000321     1.09030
C140        C  0.94344812  0.78519381  0.09250402     1.08920
C141        C  0.08752503  0.80776952  0.11904129     1.09060
C142        C  0.92096064  0.87892050  0.18578160     1.08930
O143        O  0.96006507  0.85367722  0.26498050    -0.80660
O144        O  0.04241735  0.73260944  0.14224946    -0.80730
O145        O  0.05413867  0.79452910  0.27464354    -0.80670
O146        O  0.90467867  0.74658796  0.19506619    -0.80650
O147        O  0.96589735  0.73215696  0.16185317    -0.80700
O148        O  0.04560542  0.86484541  0.27026637    -0.80670
O149        O  0.95625399  0.78231504  0.25953312    -0.80630
O150        O  0.05281664  0.72943644  0.21223740    -0.80700
Co151      Co  0.00366737  0.87207381  0.22021923     1.51530
Co152      Co  0.00322222  0.78430084  0.13947667     1.51690
Co153      Co  0.07079726  0.79100469  0.21312302     1.51570
Co154      Co  0.95109461  0.78835635  0.19595287     1.51470
O155        O  0.01124089  0.81211268  0.19550359    -1.42590
C156        C  0.95315579  0.81643333  0.28186596     1.08960
C157        C  0.05262982  0.71080622  0.17596662     1.09050
C158        C  0.05644758  0.83120040  0.29206742     1.08990
C159        C  0.92947795  0.71922084  0.17690763     1.08960
O160        O  0.21749057  0.84646018  0.09004296    -0.80660
O161        O  0.14855007  0.78752763  0.90905298    -0.80680
O162        O  0.17598771  0.88687605  0.95472020    -0.80690
O163        O  0.11353193  0.82184002  0.04740434    -0.80630
O164        O  0.20730323  0.84552154  0.90686326    -0.80750
O165        O  0.15664057  0.78834722  0.09275432    -0.80670
O166        O  0.10836652  0.82064195  0.95664770    -0.80660
O167        O  0.18199043  0.88898075  0.04563670    -0.80690
C168        C  0.19774749  0.88173148  0.08275590     1.09030
C169        C  0.11443273  0.80817467  0.91825695     1.08920
C170        C  0.18786608  0.88033980  0.91636131     1.09060
C171        C  0.12126408  0.80822016  0.08512600     1.08930
O172        O  0.21290383  0.72870597  0.04388589    -0.80660
O173        O  0.27011736  0.78823546  0.94957798    -0.80730
O174        O  0.27195650  0.86017133  0.03713181    -0.80670
O175        O  0.13534271  0.73104637  0.96051023    -0.80650
O176        O  0.20496256  0.72538344  0.95214102    -0.80700
O177        O  0.27328908  0.78985622  0.04028720    -0.80670
O178        O  0.14279689  0.73018686  0.04523072    -0.80630
O179        O  0.26563968  0.85864420  0.95342247    -0.80700
Co180      Co  0.21408594  0.78875435  0.06103602     1.51530
Co181      Co  0.20772841  0.78714851  0.93577747     1.51690
Co182      Co  0.21959104  0.86912494  0.99793208     1.51570
Co183      Co  0.12975474  0.78003225  0.00242908     1.51470
O184        O  0.19231484  0.80666775  0.99917499    -1.42590
C185        C  0.17825286  0.71015641  0.05185906     1.08960
C186        C  0.28771668  0.82482658  0.94586376     1.09050
C187        C  0.29256959  0.82515091  0.04415700     1.08990
C188        C  0.16789463  0.70876488  0.95003892     1.08960
O189        O  0.10212408  0.15399197  0.20878824    -0.80660
O190        O  0.91334331  0.19982760  0.15452905    -0.80680
O191        O  0.97118339  0.09927165  0.18290390    -0.80690
O192        O  0.05078509  0.18129486  0.11096604    -0.80630
O193        O  0.92112252  0.13727150  0.21462173    -0.80750
O194        O  0.09543853  0.21556903  0.15271059    -0.80670
O195        O  0.96234750  0.17558964  0.11042651    -0.80660
O196        O  0.05767046  0.11181027  0.17525959    -0.80690
C197        C  0.09495461  0.11929886  0.18823118     1.09030
C198        C  0.92343921  0.18395951  0.11823134     1.08920
C199        C  0.93394905  0.10174733  0.19858017     1.09060
C200        C  0.08827595  0.19428526  0.11863086     1.08930
O201        O  0.04327666  0.26798472  0.21399077    -0.80660
O202        O  0.96295609  0.19822252  0.27218344    -0.80730
O203        O  0.05980884  0.13684373  0.26920572    -0.80670
O204        O  0.95687926  0.26482831  0.14231894    -0.80650
O205        O  0.95280634  0.26207923  0.21253072    -0.80700
O206        O  0.05104900  0.20597487  0.27169824    -0.80670
O207        O  0.04365473  0.27169778  0.14421962    -0.80630
O208        O  0.97573592  0.12875415  0.27008853    -0.80700
Co209      Co  0.06739046  0.21004757  0.21129570     1.51530
Co210      Co  0.94328339  0.19914675  0.21254003     1.51690
Co211      Co  0.01566836  0.12423839  0.22017709     1.51570
Co212      Co  0.00383841  0.21929579  0.13150037     1.51470
O213        O  0.00684650  0.18727845  0.19275557    -1.42590
C214        C  0.05131348  0.28923135  0.18070899     1.08960
C215        C  0.96358663  0.16183972  0.29036458     1.09050
C216        C  0.06348906  0.17203216  0.28993801     1.08990
C217        C  0.94673366  0.28256695  0.17771550     1.08960
O218        O  0.15664694  0.90630801  0.20345454    -0.80660
O219        O  0.21941835  0.08997468  0.15599969    -0.80680
O220        O  0.11991141  0.04764897  0.17320109    -0.80690
O221        O  0.18861982  0.95387040  0.10949635    -0.80630
O222        O  0.15944373  0.08968346  0.21341247    -0.80750
O223        O  0.22011700  0.90601928  0.15125218    -0.80670
O224        O  0.18926127  0.04433205  0.11137350    -0.80660
O225        O  0.11580986  0.95455789  0.17012023    -0.80690
C226        C  0.12197348  0.91623263  0.18418924     1.09030
C227        C  0.20078479  0.08241059  0.12007533     1.08920
C228        C  0.12710810  0.08445818  0.18929387     1.09060
C229        C  0.20035920  0.91529673  0.11638007     1.08930
O230        O  0.27409491  0.95043555  0.21625725    -0.80660
O231        O  0.20916791  0.03788808  0.27401078    -0.80730
O232        O  0.13498265  0.95350806  0.26036134    -0.80670
O233        O  0.27698497  0.04028741  0.14535184    -0.80650
O234        O  0.27625507  0.04128609  0.21582054    -0.80700
O235        O  0.20475532  0.94713674  0.26990095    -0.80670
O236        O  0.27763146  0.95465113  0.14605425    -0.80630
O237        O  0.13926549  0.03694156  0.26572490    -0.80700
Co238      Co  0.21383469  0.93359338  0.20976049     1.51530
Co239      Co  0.21568645  0.05864892  0.21403760     1.51690
Co240      Co  0.13238345  0.99849838  0.21329418     1.51570
Co241      Co  0.22888638  0.99816035  0.13210890     1.51470
O242        O  0.19714573  0.99723236  0.19202742    -1.42590
C243        C  0.29525118  0.94526769  0.18235679     1.08960
C244        C  0.17198186  0.04115093  0.29017364     1.09050
C245        C  0.16689492  0.94137718  0.28282710     1.08990
C246        C  0.29620349  0.04673176  0.18101823     1.08960
O247        O  0.18730966  0.10973787  0.04837391    -0.80660
O248        O  0.11623896  0.17159537  0.95617781    -0.80680
O249        O  0.15687398  0.21216125  0.09363016    -0.80690
O250        O  0.21951036  0.15309302  0.91228323    -0.80630
O251        O  0.11702597  0.17427511  0.04957451    -0.80750
O252        O  0.18651886  0.11146827  0.95856756    -0.80670
O253        O  0.15686801  0.20679373  0.90965247    -0.80660
O254        O  0.21677020  0.15311354  0.09569572    -0.80690
C255        C  0.19933957  0.11715510  0.08677104     1.09030
C256        C  0.12310746  0.18520850  0.91783934     1.08920
C257        C  0.12281928  0.19107526  0.08628796     1.09060
C258        C  0.19981335  0.11818656  0.92096873     1.08930
O259        O  0.27754459  0.14501127  0.96079757    -0.80660
O260        O  0.14030992  0.26545474  0.04071799    -0.80730
O261        O  0.27636876  0.21068085  0.05011949    -0.80670
O262        O  0.20656940  0.27232878  0.95635644    -0.80650
O263        O  0.13762070  0.26152434  0.95774900    -0.80700
O264        O  0.27368104  0.14066739  0.04550940    -0.80670
O265        O  0.27370291  0.21547537  0.95975116    -0.80630
O266        O  0.21046294  0.27149256  0.04507864    -0.80700
Co267      Co  0.22715138  0.13080788  0.00282010     1.51530
Co268      Co  0.13251807  0.21398502  0.00147096     1.51690
Co269      Co  0.21467191  0.21131876  0.06511086     1.51570
Co270      Co  0.21394709  0.21153126  0.94029984     1.51470
O271        O  0.19662430  0.19145527  0.00271438    -1.42590
C272        C  0.29500640  0.18175767  0.95296359     1.08960
C273        C  0.17358773  0.28871928  0.04626846     1.09050
C274        C  0.29392713  0.17430226  0.05595456     1.08990
C275        C  0.16884492  0.28697180  0.95288328     1.08960
O276        O  0.86565254  0.06929977  0.19575136    -0.80660
O277        O  0.79141038  0.90206702  0.14509570    -0.80680
O278        O  0.89317806  0.95233369  0.17381836    -0.80690
O279        O  0.82477637  0.04267492  0.11016477    -0.80630
O280        O  0.85240997  0.90274844  0.20530317    -0.80750
O281        O  0.79697323  0.08804892  0.15706758    -0.80670
O282        O  0.82049579  0.95041176  0.10083066    -0.80660
O283        O  0.91913198  0.02718554  0.21955740    -0.80690
C284        C  0.90593641  0.06335673  0.20378466     1.09030
C285        C  0.80937655  0.91181331  0.10929439     1.08920
C286        C  0.88700890  0.91311314  0.18634235     1.09060
C287        C  0.81357554  0.08095421  0.12014874     1.08930
O288        O  0.73978362  0.03841290  0.21276937    -0.80660
O289        O  0.79785439  0.94632201  0.26519533    -0.80730
O290        O  0.84203476  0.03557341  0.26223660    -0.80670
O291        O  0.73312261  0.95468838  0.13186894    -0.80650
O292        O  0.73248582  0.94573492  0.20240590    -0.80700
O293        O  0.80011140  0.09267401  0.25065110    -0.80670
O294        O  0.73874350  0.03957871  0.14163137    -0.80630
O295        O  0.86740985  0.95864718  0.26123310    -0.80700
Co296      Co  0.80286089  0.04742649  0.20820142     1.51530
Co297      Co  0.79342812  0.92836600  0.20413616     1.51690
Co298      Co  0.86521588  0.99864880  0.20980091     1.51570
Co299      Co  0.78246913  0.99637317  0.12377104     1.51470
O300        O  0.80874542  0.98829137  0.18308168    -1.42590
C301        C  0.71929788  0.04327621  0.17741274     1.08960
C302        C  0.83482081  0.94606966  0.28284071     1.09050
C303        C  0.82177172  0.06903657  0.27696510     1.08990
C304        C  0.71286894  0.94569252  0.16655722     1.08960
O305        O  0.79361114  0.15093852  0.09438165    -0.80660
O306        O  0.85422985  0.20433793  0.90822020    -0.80680
O307        O  0.82615621  0.10151612  0.95875815    -0.80690
O308        O  0.89756911  0.17118963  0.04556502    -0.80630
O309        O  0.79622220  0.14465822  0.91042224    -0.80750
O310        O  0.85612550  0.20572940  0.09135737    -0.80670
O311        O  0.89504154  0.16919397  0.95407835    -0.80660
O312        O  0.82673266  0.10825906  0.04955687    -0.80690
C313        C  0.81329842  0.11565782  0.08708120     1.09030
C314        C  0.88884617  0.18395101  0.91654352     1.08920
C315        C  0.81499169  0.10917604  0.91990087     1.09060
C316        C  0.89036495  0.18464887  0.08355540     1.08930
O317        O  0.80393432  0.26922437  0.04296645    -0.80660
O318        O  0.73612996  0.20238751  0.95379258    -0.80730
O319        O  0.73582363  0.13992434  0.04504147    -0.80670
O320        O  0.86767712  0.26253360  0.95513508    -0.80650
O321        O  0.79730061  0.26388573  0.95419472    -0.80700
O322        O  0.73747555  0.21071126  0.04523121    -0.80670
O323        O  0.87308085  0.25991125  0.03924573    -0.80630
O324        O  0.73806336  0.13215388  0.95984002    -0.80700
Co325      Co  0.79813620  0.20843333  0.06238929     1.51530
Co326      Co  0.79652471  0.20345069  0.93753172     1.51690
Co327      Co  0.78589132  0.12484858  0.00342392     1.51570
Co328      Co  0.87855837  0.21152102  0.99831382     1.51470
O329        O  0.81527451  0.18634304  0.00049293    -1.42590
C330        C  0.84140133  0.28437128  0.04594870     1.08960
C331        C  0.71809316  0.16652735  0.94956360     1.09050
C332        C  0.71730660  0.17626515  0.05227126     1.08990
C333        C  0.83228252  0.28271477  0.94749162     1.08960
O334        O  0.07050270  0.86747551  0.80249056    -0.80660
O335        O  0.90472213  0.78603114  0.84877781    -0.80680
O336        O  0.95696268  0.88778661  0.82165344    -0.80690
O337        O  0.04155116  0.81947724  0.89368723    -0.80630
O338        O  0.90907692  0.84677926  0.78897065    -0.80750
O339        O  0.08975552  0.79633920  0.84715838    -0.80670
O340        O  0.95011506  0.81596093  0.89453067    -0.80660
O341        O  0.02532569  0.91379585  0.77034111    -0.80690
C342        C  0.06186416  0.90586961  0.78718440     1.09030
C343        C  0.91215863  0.80578473  0.88398948     1.08920
C344        C  0.91870076  0.88150182  0.80806494     1.09060
C345        C  0.08045161  0.81042887  0.88454368     1.08930
O346        O  0.04833901  0.73713612  0.79051210    -0.80660
O347        O  0.95566969  0.78991349  0.73142051    -0.80730
O348        O  0.04081284  0.83401897  0.73675281    -0.80670
O349        O  0.95544206  0.72637451  0.86362048    -0.80650
O350        O  0.95231609  0.72780766  0.79269988    -0.80700
O351        O  0.10113840  0.79914250  0.75435222    -0.80670
O352        O  0.04222705  0.73335399  0.86148209    -0.80630
O353        O  0.96397857  0.85959377  0.73390745    -0.80700
Co354      Co  0.05331091  0.80128734  0.79372311     1.51530
Co355      Co  0.93452158  0.78773416  0.79120768     1.51690
Co356      Co  0.00244741  0.85939424  0.78628830     1.51570
Co357      Co  0.99688491  0.77679956  0.87546836     1.51470
O358        O  0.99266408  0.80372698  0.81546726    -1.42590
C359        C  0.05150855  0.71579313  0.82578990     1.08960
C360        C  0.95479731  0.82607790  0.71243637     1.09050
C361        C  0.07667909  0.81619286  0.72557016     1.08990
C362        C  0.94735406  0.70790066  0.82764857     1.08960
O363        O  0.89162154  0.04253634  0.81917730    -0.80660
O364        O  0.82200492  0.94388038  0.88583574    -0.80680
O365        O  0.79642356  0.08653741  0.85020687    -0.80690
O366        O  0.85032156  0.90679400  0.78688666    -0.80630
O367        O  0.82742719  0.03707564  0.89161291    -0.80750
O368        O  0.89299621  0.95350276  0.81824888    -0.80670
O369        O  0.78643837  0.90230537  0.84177220    -0.80660
O370        O  0.85035151  0.08959933  0.78664999    -0.80690
C371        C  0.88477194  0.08095661  0.80732688     1.09030
C372        C  0.80469180  0.90767266  0.87778981     1.08920
C373        C  0.81552661  0.07602081  0.88533714     1.09060
C374        C  0.88530630  0.91542280  0.80665960     1.08930
O375        O  0.86434934  0.95582631  0.72758049    -0.80660
O376        O  0.73803833  0.03963895  0.86428723    -0.80730
O377        O  0.78833554  0.04374011  0.73058931    -0.80670
O378        O  0.73126221  0.95406859  0.78695797    -0.80650
O379        O  0.73370875  0.95626103  0.85768478    -0.80700
O380        O  0.85845437  0.04143374  0.72777945    -0.80670
O381        O  0.79448225  0.95249005  0.72461858    -0.80630
O382        O  0.73178556  0.04422771  0.79457562    -0.80700
Co383      Co  0.87237708  0.99837294  0.77727855     1.51530
Co384      Co  0.78483070  0.99426056  0.87000067     1.51690
Co385      Co  0.79229810  0.06016900  0.79085300     1.51570
Co386      Co  0.79155517  0.93512038  0.78577833     1.51470
O387        O  0.81094208  0.99670371  0.80673185    -1.42590
C388        C  0.83025463  0.94677051  0.70667168     1.08960
C389        C  0.71544044  0.04851050  0.83108106     1.09050
C390        C  0.82213443  0.04887580  0.70957011     1.08990
C391        C  0.71271047  0.95012084  0.82296975     1.08960
O392        O  0.81450572  0.88607623  0.03668346    -0.80660
O393        O  0.88082760  0.82453040  0.95242002    -0.80680
O394        O  0.86828276  0.78670366  0.07245898    -0.80690
O395        O  0.77725188  0.83973620  0.90375662    -0.80630
O396        O  0.91868812  0.77866495  0.02017134    -0.80750
O397        O  0.80902335  0.88167171  0.94982541    -0.80670
O398        O  0.84356994  0.78650240  0.90604039    -0.80660
O399        O  0.79886769  0.84062053  0.08829664    -0.80690
C400        C  0.81007176  0.87783450  0.07630787     1.09030
C401        C  0.87663860  0.80849197  0.91508468     1.08920
C402        C  0.90885166  0.78471997  0.05975482     1.09060
C403        C  0.79810775  0.87417680  0.91171053     1.08930
O404        O  0.71974205  0.84482524  0.95668585    -0.80660
O405        O  0.85777398  0.72526749  0.02993070    -0.80730
O406        O  0.73628829  0.78134616  0.05848441    -0.80670
O407        O  0.79689838  0.72150395  0.95184915    -0.80650
O408        O  0.86675685  0.73088711  0.95725857    -0.80700
O409        O  0.72786597  0.85059260  0.04466861    -0.80670
O410        O  0.72610458  0.77444734  0.95217472    -0.80630
O411        O  0.79249974  0.72202856  0.04753119    -0.80700
Co412      Co  0.77090993  0.86159573  0.99655773     1.51530
Co413      Co  0.86283232  0.78267257  0.99745946     1.51690
Co414      Co  0.79926342  0.78329132  0.06053065     1.51570
Co415      Co  0.78584617  0.78097311  0.93339985     1.51470
O416        O  0.80095093  0.80108672  0.99497057    -1.42590
C417        C  0.70360212  0.80786792  0.94724170     1.08960
C418        C  0.82703020  0.70317849  0.04328095     1.09050
C419        C  0.71398739  0.81521616  0.06028569     1.08990
C420        C  0.83471196  0.70677225  0.94797013     1.08960
C421        C  0.89911436  0.57800627  0.82809871    -0.00680
C422        C  0.94298230  0.58762541  0.82081360    -0.12550
C423        C  0.95635621  0.62960824  0.81264010     0.01560
C424        C  0.93018691  0.66371633  0.82557380    -0.00760
C425        C  0.88577600  0.65605642  0.82568716    -0.12490
C426        C  0.87054879  0.61345287  0.82142473     0.01450
H427        H  0.96822435  0.56471249  0.81953968     0.14430
H428        H  0.86345152  0.68305861  0.82567150     0.14430
C429        C  0.82797706  0.60698667  0.80435575     0.36080
C430        C  0.98828050  0.63595122  0.77958818     0.35980
N431        N  0.79447900  0.60240049  0.78873403    -0.44260
N432        N  0.01174092  0.64037078  0.75101263    -0.44260
C433        C  0.84595033  0.57545260  0.90440611    -0.00680
C434        C  0.88204202  0.59630315  0.92184330    -0.12550
C435        C  0.88010066  0.63943370  0.93439698     0.01560
C436        C  0.84017652  0.66141603  0.93386500    -0.00760
C437        C  0.80360240  0.63965465  0.91834299    -0.12490
C438        C  0.80651738  0.59779871  0.90231083     0.01450
H439        H  0.91298250  0.58038625  0.92133502     0.14430
H440        H  0.77279211  0.65611732  0.91644836     0.14430
C441        C  0.76960986  0.57993971  0.88044880     0.36080
C442        C  0.92011905  0.66047241  0.94478247     0.35980
N443        N  0.74005620  0.56563241  0.86297136    -0.44260
N444        N  0.95233822  0.67698529  0.95317977    -0.44260
C445        C  0.90560816  0.41418081  0.83990512    -0.00680
C446        C  0.92760914  0.39521009  0.87474259    -0.12550
C447        C  0.94284827  0.35303295  0.87301267     0.01560
C448        C  0.93995883  0.32978936  0.83407741    -0.00760
C449        C  0.91976632  0.34981543  0.79820128    -0.12490
C450        C  0.90386262  0.39220048  0.80044287     0.01450
H451        H  0.93129962  0.41249487  0.90438399     0.14430
H452        H  0.91598737  0.33220253  0.76840747     0.14430
C453        C  0.88253284  0.41106790  0.76329739     0.36080
C454        C  0.95656641  0.33371566  0.91333000     0.35980
N455        N  0.86526041  0.42621214  0.73360823    -0.44260
N456        N  0.96534089  0.31842515  0.94642482    -0.44260
C457        C  0.83060155  0.32652830  0.92732000    -0.00680
C458        C  0.81414764  0.36096894  0.95116340    -0.12550
C459        C  0.80760513  0.40190502  0.93198636     0.01560
C460        C  0.82482944  0.41096734  0.89054266    -0.00760
C461        C  0.82803114  0.37428697  0.86412470    -0.12490
C462        C  0.83278541  0.33251857  0.88216399     0.01450
H463        H  0.80172582  0.35456197  0.98307787     0.14430
H464        H  0.82890966  0.37841292  0.82952883     0.14430
C465        C  0.83752155  0.29638102  0.85357767     0.36080
C466        C  0.77093959  0.42550713  0.94756013     0.35980
N467        N  0.84072728  0.26768434  0.83019891    -0.44260
N468        N  0.73994489  0.44175542  0.96019703    -0.44260
C469        C  0.90838082  0.58061924  0.16162576    -0.00680
C470        C  0.94123653  0.60248475  0.14035401    -0.12550
C471        C  0.94334118  0.64748680  0.14094251     0.01560
C472        C  0.91956146  0.67183169  0.17132135    -0.00760
C473        C  0.88837330  0.64953463  0.19565328    -0.12490
C474        C  0.88119360  0.60473626  0.18919884     0.01450
H475        H  0.96109616  0.58496896  0.11781035     0.14430
H476        H  0.86845663  0.66722080  0.21805485     0.14430
C477        C  0.84445224  0.58466631  0.20911678     0.36080
C478        C  0.96125162  0.66746230  0.10295954     0.35980
N479        N  0.81463337  0.56862348  0.22455754    -0.44260
N480        N  0.97278908  0.68199928  0.07053628    -0.44260
C481        C  0.85976671  0.57388044  0.08296278    -0.00680
C482        C  0.81926189  0.59075730  0.09428299    -0.12550
C483        C  0.80552167  0.63146575  0.07894772     0.01560
C484        C  0.83396520  0.65705594  0.05432849    -0.00760
C485        C  0.87336400  0.63937807  0.04229324    -0.12490
C486        C  0.88584324  0.59805872  0.05449169     0.01450
H487        H  0.79853410  0.57213389  0.11542061     0.14430
H488        H  0.89586078  0.65884708  0.02426592     0.14430
C489        C  0.92722164  0.58487479  0.03871822     0.36080
C490        C  0.76284883  0.64621393  0.08959073     0.35980
N491        N  0.96098237  0.58022072  0.02389399    -0.44260
N492        N  0.72837972  0.65777169  0.09760678    -0.44260
C493        C  0.90364194  0.41595453  0.17932686    -0.00680
C494        C  0.87239412  0.38252530  0.17945444    -0.12550
C495        C  0.88515825  0.33841417  0.17846847     0.01560
C496        C  0.92939195  0.32772335  0.17871974    -0.00760
C497        C  0.95835986  0.36103804  0.18549688    -0.12490
C498        C  0.94483334  0.40345654  0.19292404     0.01450
H499        H  0.83886821  0.39076330  0.17416450     0.14430
H500        H  0.99120898  0.35278176  0.18871044     0.14430
C501        C  0.96056083  0.42151067  0.23247931     0.36080
C502        C  0.85310693  0.30558899  0.17198735     0.35980
N503        N  0.97173765  0.43419425  0.26567030    -0.44260
N504        N  0.82744094  0.27935369  0.16608223    -0.44260
C505        C  0.86450217  0.41212787  0.09330900    -0.00680
C506        C  0.89853600  0.38328334  0.08724332    -0.12550
C507        C  0.89209856  0.34321774  0.06903728     0.01560
C508        C  0.84962961  0.32895523  0.06050466    -0.00760
C509        C  0.81502073  0.35728578  0.06823314    -0.12490
C510        C  0.82227175  0.39913750  0.08338079     0.01450
H511        H  0.93094029  0.39300290  0.09578013     0.14430
H512        H  0.78233212  0.34691384  0.06217255     0.14430
C513        C  0.78600242  0.42736725  0.09046435     0.36080
C514        C  0.93038068  0.31840268  0.05956263     0.35980
N515        N  0.75698920  0.45014632  0.09603337    -0.44260
N516        N  0.96127610  0.29906238  0.05173996    -0.44260
C517        C  0.83764022  0.49170449  0.94804797    -0.00680
C518        C  0.87078233  0.46657275  0.96502950    -0.12550
C519        C  0.88126006  0.46499674  0.00824680     0.01560
C520        C  0.85671555  0.48890770  0.03844467    -0.00760
C521        C  0.81975940  0.51029257  0.02249488    -0.12490
C522        C  0.81026184  0.51266492  0.97800716     0.01450
H523        H  0.89064183  0.44873781  0.94334394     0.14430
H524        H  0.79763555  0.52477227  0.04503218     0.14430
C525        C  0.76944917  0.53161115  0.96648506     0.36080
C526        C  0.91920702  0.43942708  0.01671158     0.35980
N527        N  0.73542159  0.54582539  0.96051902    -0.44260
N528        N  0.95028829  0.41866830  0.01846840    -0.44260
C529        C  0.09651998  0.57805736  0.16360956    -0.00680
C530        C  0.07827682  0.60036889  0.12836051    -0.12550
C531        C  0.06731407  0.64389292  0.13144920     0.01560
C532        C  0.06566644  0.66426523  0.17203143    -0.00760
C533        C  0.07940269  0.64029471  0.20851757    -0.12490
C534        C  0.09654905  0.59830310  0.20429866     0.01450
H535        H  0.07817280  0.58541436  0.09684743     0.14430
H536        H  0.07982801  0.65543293  0.23988087     0.14430
C537        C  0.11839164  0.57903400  0.24087572     0.36080
C538        C  0.06518541  0.66852495  0.09202426     0.35980
N539        N  0.13679419  0.56422387  0.27005572    -0.44260
N540        N  0.06428167  0.69091273  0.06202490    -0.44260
C541        C  0.17927977  0.66593412  0.07003503    -0.00680
C542        C  0.18085622  0.65754538  0.11461231    -0.12550
C543        C  0.17997020  0.61440632  0.13003007     0.01560
C544        C  0.16733324  0.58058465  0.10190406    -0.00760
C545        C  0.16805490  0.59110397  0.05732142    -0.12490
C546        C  0.18248228  0.63090300  0.04275131     0.01450
H547        H  0.18514429  0.68399815  0.13680775     0.14430
H548        H  0.15695365  0.57074632  0.03225687     0.14430
C549        C  0.21421749  0.63122885  0.00900206     0.36080
C550        C  0.19467868  0.60554717  0.17338107     0.35980
N551        N  0.24174330  0.63081831  0.98398592    -0.44260
N552        N  0.20810097  0.59883294  0.20768904    -0.44260
C553        C  0.07530688  0.33073312  0.18504514    -0.00680
C554        C  0.11549357  0.33526273  0.16549365    -0.12550
C555        C  0.13749709  0.37458207  0.16913677     0.01560
C556        C  0.11407205  0.41258629  0.17904929    -0.00760
C557        C  0.08037690  0.40544485  0.20847732    -0.12490
C558        C  0.06433763  0.36333262  0.21498000     0.01450
H559        H  0.13123299  0.30741462  0.15155094     0.14430
H560        H  0.06809294  0.43119143  0.22780907     0.14430
C561        C  0.03989754  0.35378709  0.25342375     0.36080
C562        C  0.18379664  0.37378170  0.17153693     0.35980
N563        N  0.02108145  0.34592460  0.28464691    -0.44260
N564        N  0.22089087  0.37257865  0.17448212    -0.44260
C565        C  0.16807341  0.33537584  0.05584617    -0.00680
C566        C  0.12604871  0.35186958  0.05807742    -0.12550
C567        C  0.11773851  0.39259344  0.07500754     0.01560
C568        C  0.15216685  0.41788319  0.09050707    -0.00760
C569        C  0.19432505  0.40448030  0.08166421    -0.12490
C570        C  0.20263254  0.36331108  0.06539374     0.01450
H571        H  0.09902340  0.33194340  0.04888576     0.14430
H572        H  0.22097583  0.42460190  0.09151170     0.14430
C573        C  0.24692217  0.35036438  0.06169280     0.36080
C574        C  0.07332907  0.40547478  0.07782585     0.35980
N575        N  0.28277376  0.34085150  0.05911448    -0.44260
N576        N  0.03692075  0.41315520  0.07844735    -0.44260
C577        C  0.05561195  0.49622454  0.17509285    -0.00680
C578        C  0.03471810  0.49201972  0.13593621    -0.12550
C579        C  0.99057887  0.49395190  0.13197071     0.01560
C580        C  0.96412099  0.50002158  0.16812362    -0.00760
C581        C  0.98467183  0.50955270  0.20746953    -0.12490
C582        C  0.03013824  0.50628380  0.21168288     0.01450
H583        H  0.05379093  0.48931480  0.10720108     0.14430
H584        H  0.96517694  0.51689794  0.23537495     0.14430
C585        C  0.04848213  0.50908750  0.25423538     0.36080
C586        C  0.97561441  0.49599248  0.08861666     0.35980
N587        N  0.06182546  0.50994394  0.28911769    -0.44260
N588        N  0.96969602  0.49964898  0.05212848    -0.44260
C589        C  0.08734976  0.58128153  0.84132779    -0.00680
C590        C  0.10541470  0.60542267  0.80715846    -0.12550
C591        C  0.09465833  0.64941271  0.80051776     0.01560
C592        C  0.06497443  0.66969395  0.82821975    -0.00760
C593        C  0.04662977  0.64524205  0.86149916    -0.12490
C594        C  0.05688165  0.60204729  0.86817469     0.01450
H595        H  0.12942142  0.59042606  0.78687107     0.14430
H596        H  0.02347316  0.66015119  0.88291564     0.14430
C597        C  0.03764782  0.58262993  0.90578918     0.36080
C598        C  0.11527555  0.67311678  0.76615934     0.35980
N599        N  0.02215884  0.57022179  0.93743242    -0.44260
N600        N  0.13185413  0.69203663  0.73851627    -0.44260
C601        C  0.15120660  0.57727142  0.90822988    -0.00680
C602        C  0.12687076  0.59412875  0.94177528    -0.12550
C603        C  0.12770820  0.63806906  0.95047230     0.01560
C604        C  0.16138398  0.66397181  0.93430675    -0.00760
C605        C  0.18940731  0.64584613  0.90371966    -0.12490
C606        C  0.18313094  0.60338052  0.88912239     0.01450
H607        H  0.10281124  0.57421076  0.95706488     0.14430
H608        H  0.21489592  0.66532699  0.89000375     0.14430
C609        C  0.20906365  0.58740603  0.85422964     0.36080
C610        C  0.08914043  0.65623587  0.96834268     0.35980
N611        N  0.22965317  0.57454617  0.82608881    -0.44260
N612        N  0.05618682  0.66999970  0.97866081    -0.44260
C613        C  0.07212979  0.32764926  0.82115054    -0.00680
C614        C  0.11579424  0.33837888  0.82438525    -0.12550
C615        C  0.12804672  0.38225628  0.82352817     0.01560
C616        C  0.09642622  0.41502550  0.82973999    -0.00760
C617        C  0.05338059  0.40252607  0.82255700    -0.12490
C618        C  0.04351045  0.36074014  0.81042607     0.01450
H619        H  0.13994854  0.31302943  0.82551205     0.14430
H620        H  0.02620953  0.42308551  0.82634233     0.14430
C621        C  0.01534479  0.35573409  0.77386995     0.36080
C622        C  0.17240418  0.39292992  0.81555208     0.35980
N623        N  0.99546516  0.35227617  0.74246221    -0.44260
N624        N  0.20780397  0.40132266  0.80794549    -0.44260
C625        C  0.14436029  0.41661208  0.91036636    -0.00680
C626        C  0.11033794  0.39068774  0.92413537    -0.12550
C627        C  0.11782506  0.34946370  0.94045765     0.01560
C628        C  0.16031594  0.33281004  0.94217525    -0.00760
C629        C  0.19472134  0.36010177  0.93161973    -0.12490
C630        C  0.18707223  0.40206936  0.91626111     0.01450
H631        H  0.07752774  0.40197992  0.92013421     0.14430
H632        H  0.22752907  0.34825944  0.93389154     0.14430
C633        C  0.22329765  0.42820660  0.90360447     0.36080
C634        C  0.08104046  0.32506257  0.95468241     0.35980
N635        N  0.25239414  0.44897652  0.89325329    -0.44260
N636        N  0.05249061  0.30455322  0.96680390    -0.44260
C637        C  0.14995099  0.49513305  0.95776518    -0.00680
C638        C  0.19083296  0.50020270  0.97707452    -0.12550
C639        C  0.19569341  0.49894719  0.02258344     0.01560
C640        C  0.15871628  0.49683501  0.04896228    -0.00760
C641        C  0.11868791  0.49267632  0.02926456    -0.12490
C642        C  0.11418782  0.48891298  0.98514326     0.01450
H643        H  0.21877727  0.50457092  0.95680564     0.14430
H644        H  0.09032994  0.49046939  0.04896979     0.14430
C645        C  0.07229532  0.47536351  0.97108497     0.36080
C646        C  0.23799269  0.50164193  0.04140151     0.35980
N647        N  0.03812753  0.46211233  0.96495171    -0.44260
N648        N  0.27199658  0.50341239  0.05654403    -0.44260
C649        C  0.95039183  0.49193932  0.83203397    -0.00680
C650        C  0.97247677  0.49002871  0.79202798    -0.12550
C651        C  0.01806336  0.49509018  0.79053768     0.01560
C652        C  0.04153541  0.49897895  0.82958077    -0.00760
C653        C  0.01918958  0.49716935  0.86803546    -0.12490
C654        C  0.97502783  0.49555595  0.87004594     0.01450
H655        H  0.95423168  0.48699566  0.76238367     0.14430
H656        H  0.03738161  0.49890795  0.89733870     0.14430
C657        C  0.95712504  0.50257092  0.91204191     0.36080
C658        C  0.04010536  0.49335946  0.74986009     0.35980
N659        N  0.94732311  0.51050163  0.94698028    -0.44260
N660        N  0.05794284  0.49166923  0.71723079    -0.44260
C661        C  0.58369360  0.90364293  0.83899309    -0.00680
C662        C  0.60272752  0.90117823  0.79812808    -0.12550
C663        C  0.64486077  0.91601574  0.79170754     0.01560
C664        C  0.66740970  0.93570431  0.82615863    -0.00760
C665        C  0.64642935  0.94091176  0.86593812    -0.12490
C666        C  0.60474032  0.92610957  0.87197730     0.01450
H667        H  0.58531251  0.88613140  0.77196486     0.14430
H668        H  0.66220132  0.95717729  0.89232346     0.14430
C669        C  0.58009861  0.94005444  0.90868108     0.36080
C670        C  0.66409453  0.90956105  0.74995319     0.35980
N671        N  0.55673546  0.94949537  0.93601286    -0.44260
N672        N  0.67949506  0.90427947  0.71647852    -0.44260
C673        C  0.58059853  0.81868796  0.88533250    -0.00680
C674        C  0.58525436  0.78697614  0.91839278    -0.12550
C675        C  0.62671089  0.77802373  0.93588928     0.01560
C676        C  0.66178857  0.80457762  0.92331710    -0.00760
C677        C  0.65819594  0.82402694  0.88242156    -0.12490
C678        C  0.61842821  0.82362684  0.86089447     0.01450
H679        H  0.55758050  0.77031494  0.93123897     0.14430
H680        H  0.68685468  0.83460842  0.86564054     0.14430
C681        C  0.61803326  0.81134828  0.81613470     0.36080
C682        C  0.63309668  0.73962930  0.96186658     0.35980
N683        N  0.61784077  0.80071067  0.78044940    -0.44260
N684        N  0.63846022  0.70852636  0.98228811    -0.44260
C685        C  0.33208740  0.93236676  0.82534703    -0.00680
C686        C  0.35992472  0.95764425  0.84974012    -0.12550
C687        C  0.40367373  0.94831669  0.85311267     0.01560
C688        C  0.42040222  0.90970663  0.83682669    -0.00760
C689        C  0.39279122  0.88355243  0.81213139    -0.12490
C690        C  0.34909717  0.89519159  0.80537646     0.01450
H691        H  0.34689737  0.98356183  0.86831772     0.14430
H692        H  0.40482825  0.85319637  0.79982352     0.14430
C693        C  0.32159881  0.86653064  0.78161495     0.36080
C694        C  0.43039023  0.97591373  0.87818148     0.35980
N695        N  0.29948113  0.84345018  0.76268598    -0.44260
N696        N  0.45355953  0.99499233  0.89981628    -0.44260
C697        C  0.42041813  0.85089194  0.90956956    -0.00680
C698        C  0.40223108  0.81039808  0.89967109    -0.12550
C699        C  0.35988768  0.79949574  0.91242203     0.01560
C700        C  0.33356643  0.83070928  0.93253924    -0.00760
C701        C  0.35117111  0.87124613  0.94013768    -0.12490
C702        C  0.39395476  0.88060811  0.93185427     0.01450
H703        H  0.42120125  0.78723209  0.88183230     0.14430
H704        H  0.33149516  0.89622901  0.95457511     0.14430
C705        C  0.40763074  0.92104119  0.94914347     0.36080
C706        C  0.34393645  0.75701920  0.90288875     0.35980
N707        N  0.41334959  0.95367250  0.96608522    -0.44260
N708        N  0.33122630  0.72285071  0.89535115    -0.44260
C709        C  0.66667291  0.93331012  0.16412560    -0.00680
C710        C  0.64530646  0.93796812  0.12428511    -0.12550
C711        C  0.60355066  0.92280020  0.11845516     0.01560
C712        C  0.58296839  0.90009426  0.15208580    -0.00760
C713        C  0.60188422  0.89980486  0.19327511    -0.12490
C714        C  0.64364378  0.91552845  0.19952520     0.01450
H715        H  0.66134839  0.95315902  0.09715139     0.14430
H716        H  0.58522603  0.88418160  0.21982080     0.14430
C717        C  0.66256704  0.91008244  0.24186005     0.36080
C718        C  0.58193017  0.93310678  0.07847409     0.35980
N719        N  0.67764678  0.90538668  0.27580468    -0.44260
N720        N  0.56462391  0.94247304  0.04656119    -0.44260
C721        C  0.58607151  0.81248980  0.11226511    -0.00680
C722        C  0.62137081  0.81775293  0.14055763    -0.12550
C723        C  0.66376430  0.81949475  0.12462101     0.01560
C724        C  0.67099469  0.81294887  0.08034639    -0.00760
C725        C  0.63753969  0.79589855  0.05620987    -0.12490
C726        C  0.59651878  0.79071873  0.07380552     0.01450
H727        H  0.61572212  0.82250094  0.17450100     0.14430
H728        H  0.64468846  0.78415699  0.02483399     0.14430
C729        C  0.57120067  0.75539028  0.05795598     0.36080
C730        C  0.69889199  0.82727648  0.15397025     0.35980
N731        N  0.55246850  0.72600529  0.04506503    -0.44260
N732        N  0.72699756  0.83308322  0.17774800    -0.44260
C733        C  0.42090866  0.88853504  0.16961607    -0.00680
C734        C  0.41576319  0.92689258  0.19375954    -0.12550
C735        C  0.37449071  0.94300430  0.20357920     0.01560
C736        C  0.33823345  0.92395253  0.18434251    -0.00760
C737        C  0.34300565  0.88135061  0.17036114    -0.12490
C738        C  0.38405138  0.86211696  0.17043404     0.01450
H739        H  0.44253348  0.94319883  0.20771187     0.14430
H740        H  0.31468118  0.86185423  0.16491550     0.14430
C741        C  0.38773738  0.81945511  0.18934259     0.36080
C742        C  0.37006686  0.97614015  0.23565779     0.35980
N743        N  0.39063230  0.78568283  0.20551631    -0.44260
N744        N  0.36676440  0.00204087  0.26209475    -0.44260
C745        C  0.33812713  0.82557777  0.05881316    -0.00680
C746        C  0.36511037  0.85914368  0.04505661    -0.12550
C747        C  0.40812321  0.86026622  0.05816278     0.01560
C748        C  0.42310968  0.83214399  0.09054433    -0.00760
C749        C  0.39811042  0.79609270  0.10105016    -0.12490
C750        C  0.35569176  0.79269699  0.08594029     0.01450
H751        H  0.35295213  0.88413023  0.02374617     0.14430
H752        H  0.41118842  0.77158905  0.12268899     0.14430
C753        C  0.33023226  0.75709933  0.10183046     0.36080
C754        C  0.43859159  0.88574953  0.03462901     0.35980
N755        N  0.30985408  0.72866895  0.11484727    -0.44260
N756        N  0.46559024  0.90492916  0.01755392    -0.44260
C757        C  0.50828319  0.83258889  0.95405719    -0.00680
C758        C  0.48050923  0.80253356  0.97440378    -0.12550
C759        C  0.48107621  0.79524494  0.01989734     0.01560
C760        C  0.50704319  0.82131406  0.04717650    -0.00760
C761        C  0.53718438  0.84696952  0.02616076    -0.12490
C762        C  0.54039450  0.85048631  0.98160325     0.01450
H763        H  0.45983272  0.78287876  0.95473536     0.14430
H764        H  0.56085248  0.86301633  0.04524786     0.14430
C765        C  0.58144647  0.86709882  0.96868548     0.36080
C766        C  0.45874914  0.75797037  0.03637832     0.35980
N767        N  0.61650276  0.87854015  0.96388573    -0.44260
N768        N  0.44161375  0.72708910  0.04855168    -0.44260
C769        C  0.67057799  0.06358102  0.83621829    -0.00680
C770        C  0.65052274  0.05167021  0.87431068    -0.12550
C771        C  0.60875041  0.06401206  0.88317370     0.01560
C772        C  0.58522526  0.09133378  0.85402801    -0.00760
C773        C  0.60540651  0.10328777  0.81515602    -0.12490
C774        C  0.64765163  0.08943206  0.80585998     0.01450
H775        H  0.66781882  0.03194938  0.89786112     0.14430
H776        H  0.58856413  0.12442830  0.79258708     0.14430
C777        C  0.66721609  0.10384104  0.76615104     0.36080
C778        C  0.59266419  0.04581502  0.92258420     0.35980
N779        N  0.68297997  0.11542872  0.73433411    -0.44260
N780        N  0.58276868  0.02892963  0.95443574    -0.44260
C781        C  0.58535922  0.16046473  0.91279350    -0.00680
C782        C  0.61341031  0.18601844  0.88796888    -0.12550
C783        C  0.65724181  0.18887717  0.89894427     0.01560
C784        C  0.67365558  0.16395839  0.93381957    -0.00760
C785        C  0.64606046  0.13787345  0.95744015    -0.12490
C786        C  0.60222235  0.13857583  0.94931808     0.01450
H787        H  0.60136753  0.20242409  0.85925569     0.14430
H788        H  0.65843257  0.11922638  0.98472326     0.14430
C789        C  0.57631819  0.11523847  0.97928419     0.36080
C790        C  0.68496700  0.21574860  0.87299198     0.35980
N791        N  0.55730924  0.09655859  0.00527168    -0.44260
N792        N  0.70724529  0.23732292  0.85223151    -0.44260
C793        C  0.33837989  0.06422740  0.83941393    -0.00680
C794        C  0.35641966  0.06377790  0.88077775    -0.12550
C795        C  0.39799951  0.07742987  0.88803958     0.01560
C796        C  0.42223712  0.09526599  0.85387335    -0.00760
C797        C  0.40340149  0.09795808  0.81273016    -0.12490
C798        C  0.36236424  0.08159764  0.80476172     0.01450
H799        H  0.33843950  0.05092118  0.90794477     0.14430
H800        H  0.41966260  0.11599535  0.78758618     0.14430
C801        C  0.34529617  0.08555377  0.76150064     0.36080
C802        C  0.41416569  0.06912381  0.93069323     0.35980
N803        N  0.33179459  0.08883847  0.72675565    -0.44260
N804        N  0.42395143  0.05716439  0.96481614    -0.44260
C805        C  0.42128794  0.18152463  0.89578513    -0.00680
C806        C  0.38474232  0.17622190  0.86941281    -0.12550
C807        C  0.34328446  0.17485311  0.88741650     0.01560
C808        C  0.33758766  0.18576726  0.93105382    -0.00760
C809        C  0.37132942  0.20904192  0.94999715    -0.12490
C810        C  0.41294795  0.20855036  0.93155203     0.01450
H811        H  0.38859805  0.17185922  0.83524810     0.14430
H812        H  0.36525533  0.22774522  0.97873338     0.14430
C813        C  0.43733969  0.24738431  0.93709426     0.36080
C814        C  0.30726904  0.16619914  0.85949107     0.35980
N815        N  0.45414520  0.28041041  0.94063951    -0.44260
N816        N  0.27896993  0.16010474  0.83604349    -0.44260
C817        C  0.50200713  0.04849283  0.83201282    -0.00680
C818        C  0.52732465  0.01902237  0.85466663    -0.12550
C819        C  0.54088184  0.98238881  0.83383495     0.01560
C820        C  0.50715928  0.95666585  0.81932635    -0.00760
C821        C  0.47701404  0.98192925  0.79440976    -0.12490
C822        C  0.47878955  0.02888593  0.79657178     0.01450
H823        H  0.52823853  0.02061956  0.88911231     0.14430
H824        H  0.45422548  0.96621685  0.77335564     0.14430
C825        C  0.46574908  0.05313188  0.75890361     0.36080
C826        C  0.57239777  0.99305683  0.80095037     0.35980
N827        N  0.45626492  0.07158109  0.72756750    -0.44260
N828        N  0.59672638  0.00249151  0.77434447    -0.44260
C829        C  0.59001418  0.08636174  0.15448649    -0.00680
C830        C  0.60707673  0.09021537  0.19654703    -0.12550
C831        C  0.64888627  0.07533705  0.20649805     0.01560
C832        C  0.67305931  0.05451433  0.17436664    -0.00760
C833        C  0.65343175  0.04640418  0.13447681    -0.12490
C834        C  0.61266359  0.06148008  0.12461082     0.01450
H835        H  0.58858796  0.10689767  0.22085180     0.14430
H836        H  0.67039451  0.02842035  0.10995728     0.14430
C837        C  0.59415211  0.04682975  0.08508139     0.36080
C838        C  0.66668278  0.08386668  0.24856913     0.35980
N839        N  0.58091777  0.03128936  0.05413342    -0.44260
N840        N  0.68091850  0.09082223  0.28233006    -0.44260
C841        C  0.67277533  0.17825352  0.07020145    -0.00680
C842        C  0.66393473  0.17259385  0.11438528    -0.12550
C843        C  0.62064932  0.17154357  0.12876845     0.01560
C844        C  0.58660224  0.16423118  0.09879621    -0.00760
C845        C  0.59670924  0.17555893  0.05610029    -0.12490
C846        C  0.63781304  0.18898183  0.04388331     0.01450
H847        H  0.69018231  0.17199231  0.13749230     0.14430
H848        H  0.57421423  0.17337950  0.03124226     0.14430
C849        C  0.64234016  0.21972986  0.00895394     0.36080
C850        C  0.61144835  0.18305268  0.17275099     0.35980
N851        N  0.64596045  0.24585187  0.98224654    -0.44260
N852        N  0.60401753  0.19329905  0.20775014    -0.44260
C853        C  0.43012683  0.08422985  0.17459014    -0.00680
C854        C  0.41494160  0.04459868  0.15939576    -0.12550
C855        C  0.37130384  0.03548969  0.15691876     0.01560
C856        C  0.34209994  0.05939688  0.18105174    -0.00760
C857        C  0.35751580  0.09531623  0.20401331    -0.12490
C858        C  0.40072708  0.10909853  0.19903895     0.01450
H859        H  0.43435259  0.02550888  0.13962559     0.14430
H860        H  0.33522150  0.11451212  0.22265107     0.14430
C861        C  0.41345164  0.14998494  0.21666369     0.36080
C862        C  0.35695875  0.00563394  0.12430893     0.35980
N863        N  0.42360717  0.18293872  0.23057354    -0.44260
N864        N  0.34512228  0.98347612  0.09691484    -0.44260
C865        C  0.33617373  0.16809278  0.07773145    -0.00680
C866        C  0.34917130  0.12501365  0.08473414    -0.12550
C867        C  0.39175207  0.11517996  0.09331062     0.01560
C868        C  0.42013340  0.14770167  0.10675769    -0.00760
C869        C  0.40636918  0.19090242  0.10456118    -0.12490
C870        C  0.36550932  0.20144094  0.08767388     0.01450
H871        H  0.32838333  0.09844928  0.07603734     0.14430
H872        H  0.42869619  0.21632110  0.11280628     0.14430
C873        C  0.35688669  0.24596463  0.07717471     0.36080
C874        C  0.40828477  0.07607150  0.07422229     0.35980
N875        N  0.35172195  0.28190018  0.06804477    -0.44260
N876        N  0.42189142  0.04635414  0.05659537    -0.44260
C877        C  0.51443898  0.03614403  0.16174721    -0.00680
C878        C  0.50765814  0.01439477  0.12317008    -0.12550
C879        C  0.49610103  0.97109294  0.12385806     0.01560
C880        C  0.50474667  0.94486746  0.16008084    -0.00760
C881        C  0.51974676  0.96552446  0.19782584    -0.12490
C882        C  0.52138640  0.01131039  0.19972766     0.01450
H883        H  0.50115285  0.03343420  0.09420544     0.14430
H884        H  0.52687024  0.94626298  0.22638107     0.14430
C885        C  0.52952917  0.03182273  0.24039534     0.36080
C886        C  0.46114684  0.96115555  0.09599815     0.35980
N887        N  0.53597375  0.04825586  0.27312711    -0.44260
N888        N  0.42923807  0.95918982  0.07711984    -0.44260
C889        C  0.49142811  0.16825130  0.04814402    -0.00680
C890        C  0.50784478  0.20655234  0.02857097    -0.12550
C891        C  0.51418380  0.20862203  0.98257324     0.01560
C892        C  0.50123812  0.17338590  0.95643916    -0.00760
C893        C  0.48521903  0.13755722  0.97741803    -0.12490
C894        C  0.47092025  0.13976978  0.01911603     0.01450
H895        H  0.52141792  0.23134032  0.04883006     0.14430
H896        H  0.47963056  0.10893401  0.95903873     0.14430
C897        C  0.42539925  0.14155393  0.01259160     0.36080
C898        C  0.53781655  0.24400424  0.96389877     0.35980
N899        N  0.38943684  0.13972198  0.00329551    -0.44260
N900        N  0.55660275  0.27240336  0.94856298    -0.44260
C901        C  0.91269247  0.83519695  0.57951654    -0.00680
C902        C  0.93308921  0.86998573  0.59962413    -0.12550
C903        C  0.94347959  0.86869736  0.64323046     0.01560
C904        C  0.94203759  0.82918862  0.66613705    -0.00760
C905        C  0.92691524  0.79230970  0.64436921    -0.12490
C906        C  0.91109361  0.79541798  0.60176611     0.01450
H907        H  0.93751525  0.89997435  0.58227614     0.14430
H908        H  0.92549510  0.76147009  0.66117611     0.14430
C909        C  0.89285392  0.75786921  0.58177179     0.36080
C910        C  0.95029925  0.90942339  0.66427873     0.35980
N911        N  0.87831276  0.72776290  0.56556654    -0.44260
N912        N  0.95450819  0.94182994  0.68202287    -0.44260
C913        C  0.84174053  0.89477659  0.57647962    -0.00680
C914        C  0.86161070  0.93269508  0.58935493    -0.12550
C915        C  0.85799267  0.94900627  0.63045171     0.01560
C916        C  0.83274976  0.92884800  0.66188152    -0.00760
C917        C  0.81047200  0.89118082  0.64951347    -0.12490
C918        C  0.81551765  0.87366147  0.60745894     0.01450
H919        H  0.88569276  0.94711594  0.56966846     0.14430
H920        H  0.79060028  0.87458051  0.67299124     0.14430
C921        C  0.79507352  0.83337689  0.59733702     0.36080
C922        C  0.88228820  0.98673741  0.63803183     0.35980
N923        N  0.77878862  0.80094513  0.58918559    -0.44260
N924        N  0.90303439  0.01717285  0.63904609    -0.44260
C925        C  0.84039152  0.92951821  0.32792969    -0.00680
C926        C  0.80648415  0.90727928  0.34866819    -0.12550
C927        C  0.81196595  0.88910614  0.39028571     0.01560
C928        C  0.85084730  0.89523765  0.41266404    -0.00760
C929        C  0.88265228  0.91994928  0.39321566    -0.12490
C930        C  0.87957040  0.93420520  0.35063536     0.01450
H931        H  0.77628147  0.90257600  0.33183518     0.14430
H932        H  0.91107681  0.92654057  0.41145374     0.14430
C933        C  0.91792948  0.95223092  0.33148223     0.36080
C934        C  0.77799482  0.86361324  0.40894146     0.35980
N935        N  0.94885871  0.96645447  0.31645409    -0.44260
N936        N  0.75079274  0.84311827  0.42401419    -0.44260
C937        C  0.91612425  0.82865795  0.41544860    -0.00680
C938        C  0.89358643  0.79980968  0.38872787    -0.12550
C939        C  0.90598278  0.79292928  0.34549370     0.01560
C940        C  0.94188691  0.81481244  0.32841317    -0.00760
C941        C  0.96531192  0.84160961  0.35544864    -0.12490
C942        C  0.95338545  0.84885187  0.39797423     0.01450
H943        H  0.86451349  0.78483743  0.40079606     0.14430
H944        H  0.99157937  0.86015920  0.34206491     0.14430
C945        C  0.97657335  0.88331621  0.41810139     0.36080
C946        C  0.87894043  0.76704508  0.31823944     0.35980
N947        N  0.99527821  0.91304211  0.43018864    -0.44260
N948        N  0.85704793  0.74660492  0.29624292    -0.44260
C949        C  0.91385064  0.14503441  0.58217775    -0.00680
C950        C  0.92986253  0.11165501  0.60836066    -0.12550
C951        C  0.94064278  0.11859254  0.65138854     0.01560
C952        C  0.94111626  0.16097483  0.66815833    -0.00760
C953        C  0.92635450  0.19512777  0.64160757    -0.12490
C954        C  0.91106100  0.18720385  0.59954222     0.01450
H955        H  0.93080850  0.07933083  0.59585666     0.14430
H956        H  0.92569258  0.22773267  0.65395055     0.14430
C957        C  0.89612213  0.22321620  0.57334504     0.36080
C958        C  0.94665352  0.08118485  0.67901978     0.35980
N959        N  0.88444192  0.25203350  0.55220401    -0.44260
N960        N  0.95040945  0.05273852  0.70339941    -0.44260
C961        C  0.81913248  0.06652300  0.66513157    -0.00680
C962        C  0.82920772  0.10973758  0.65656229    -0.12550
C963        C  0.82991547  0.12470922  0.61361407     0.01560
C964        C  0.83315507  0.09461661  0.57967867    -0.00760
C965        C  0.81257889  0.05484717  0.58836847    -0.12490
C966        C  0.80220172  0.04260650  0.63077370     0.01450
H967        H  0.83308083  0.13207010  0.68297178     0.14430
H968        H  0.80316739  0.03324146  0.56363830     0.14430
C969        C  0.77275497  0.00742720  0.63781588     0.36080
C970        C  0.81712697  0.16870818  0.60479949     0.35980
N971        N  0.74794240  0.98011277  0.64277984    -0.44260
N972        N  0.80494373  0.20356730  0.59832271    -0.44260
C973        C  0.91812625  0.13796009  0.41743641    -0.00680
C974        C  0.90042496  0.17251415  0.39360609    -0.12550
C975        C  0.91521069  0.18194508  0.35215335     0.01560
C976        C  0.94808844  0.15618084  0.33434409    -0.00760
C977        C  0.96515702  0.12146647  0.35795265    -0.12490
C978        C  0.95043902  0.11177533  0.39887636     0.01450
H979        H  0.87505582  0.19199411  0.40754249     0.14430
H980        H  0.99091271  0.10213418  0.34461243     0.14430
C981        C  0.97390183  0.07898881  0.42278430     0.36080
C982        C  0.89510193  0.21701738  0.32838146     0.35980
N983        N  0.99484804  0.05364757  0.44091836    -0.44260
N984        N  0.87893800  0.24513949  0.30937857    -0.44260
C985        C  0.84410482  0.08826036  0.41563122    -0.00680
C986        C  0.81558933  0.11640172  0.39302983    -0.12550
C987        C  0.80689837  0.11165528  0.34814274     0.01560
C988        C  0.82586343  0.07730429  0.32495249    -0.00760
C989        C  0.85204192  0.04844368  0.34846030    -0.12490
C990        C  0.86179495  0.05374928  0.39201247     0.01450
H991        H  0.80244489  0.14400041  0.40977703     0.14430
H992        H  0.86773724  0.02230963  0.33195395     0.14430
C993        C  0.89485274  0.02588126  0.40867623     0.36080
C994        C  0.78040174  0.14359265  0.32657306     0.35980
N995        N  0.92286252  0.00334287  0.41892549    -0.44260
N996        N  0.75933595  0.16945624  0.30929999    -0.44260
C997        C  0.84544337  0.03482824  0.49758823    -0.00680
C998        C  0.80704540  0.01304747  0.48681880    -0.12550
C999        C  0.80558929  0.96726123  0.48700466     0.01560
C1000       C  0.84398719  0.94314411  0.49197887    -0.00760
C1001       C  0.88261442  0.96567076  0.49612108    -0.12490
C1002       C  0.88306903  0.00988386  0.50404080     0.01450
H1003       H  0.77789514  0.03164888  0.48128337     0.14430
H1004       H  0.91255760  0.94772963  0.49812591     0.14430
C1005       C  0.92356947  0.02868572  0.51654596     0.36080
C1006       C  0.76473612  0.94599937  0.48310836     0.35980
N1007       N  0.95647255  0.04260249  0.52674453    -0.44260
N1008       N  0.73171442  0.92917174  0.48049669    -0.44260
C1009       C  0.18180745  0.09932805  0.58689141    -0.00680
C1010       C  0.18076463  0.12720836  0.62243823    -0.12550
C1011       C  0.17746882  0.11073839  0.66468618     0.01560
C1012       C  0.18088134  0.06587326  0.67201457    -0.00760
C1013       C  0.19563428  0.04046893  0.63783655    -0.12490
C1014       C  0.20093524  0.05878457  0.59640344     0.01450
H1015       H  0.18073072  0.16156176  0.61719095     0.14430
H1016       H  0.20846636  0.00849747  0.64482371     0.14430
C1017       C  0.24203985  0.04954535  0.57727294     0.36080
C1018       C  0.17179525  0.14046159  0.69977064     0.35980
N1019       N  0.27598337  0.04291261  0.56357347    -0.44260
N1020       N  0.16735814  0.16457118  0.72767696    -0.44260
C1021       C  0.10245640  0.15189360  0.58282212    -0.00680
C1022       C  0.08101077  0.11736466  0.60252574    -0.12550
C1023       C  0.06410392  0.12035632  0.64390767     0.01560
C1024       C  0.06654845  0.15946305  0.66674178    -0.00760
C1025       C  0.08695625  0.19489011  0.64662366    -0.12490
C1026       C  0.10608006  0.19095930  0.60577265     0.01450
H1027       H  0.08069233  0.08645547  0.58725478     0.14430
H1028       H  0.09063750  0.22485777  0.66396868     0.14430
C1029       C  0.13321602  0.22547486  0.59010904     0.36080
C1030       C  0.04756265  0.08134629  0.66281925     0.35980
N1031       N  0.15515055  0.25292783  0.57760102    -0.44260
N1032       N  0.03506185  0.04957384  0.67790294    -0.44260
C1033       C  0.12116692  0.16936976  0.41728765    -0.00680
C1034       C  0.08649385  0.19806259  0.40865204    -0.12550
C1035       C  0.06852215  0.20112557  0.36653610     0.01560
C1036       C  0.08479635  0.17477105  0.33329400    -0.00760
C1037       C  0.12673273  0.15906406  0.33934524    -0.12490
C1038       C  0.14653431  0.16169573  0.38025330     0.01450
H1039       H  0.07282518  0.21717186  0.43416850     0.14430
H1040       H  0.14507590  0.14834609  0.31174818     0.14430
C1041       C  0.19242235  0.16740280  0.38204955     0.36080
C1042       C  0.03669166  0.23382183  0.35665435     0.35980
N1043       N  0.22906522  0.17367655  0.38261815    -0.44260
N1044       N  0.01221838  0.26055315  0.34699568    -0.44260
C1045       C  0.16685929  0.05246148  0.33680511    -0.00680
C1046       C  0.20398940  0.05969363  0.36182885    -0.12550
C1047       C  0.20135860  0.07369294  0.40465884     0.01560
C1048       C  0.16075474  0.08075914  0.42363242    -0.00760
C1049       C  0.12372574  0.06952142  0.40030348    -0.12490
C1050       C  0.12616838  0.05794919  0.35676605     0.01450
H1051       H  0.23549697  0.05613113  0.34742652     0.14430
H1052       H  0.09245365  0.07431611  0.41481232     0.14430
C1053       C  0.08614097  0.05492808  0.33316334     0.36080
C1054       C  0.24061934  0.08614600  0.42608571     0.35980
N1055       N  0.05406619  0.05172770  0.31444529    -0.44260
N1056       N  0.27213736  0.09643909  0.44298748    -0.44260
C1057       C  0.05875702  0.16635559  0.49887529    -0.00680
C1058       C  0.03344797  0.14846953  0.46610334    -0.12550
C1059       C  0.99043759  0.16131339  0.46306549     0.01560
C1060       C  0.96684071  0.15965101  0.50100666    -0.00760
C1061       C  0.99004203  0.18065313  0.53469315    -0.12490
C1062       C  0.03464666  0.18980764  0.52988241     0.01450
H1063       H  0.04735439  0.13016284  0.44019023     0.14430
H1064       H  0.97452223  0.19721924  0.55990853     0.14430
C1065       C  0.04804246  0.23238119  0.54218238     0.36080
C1066       C  0.98269697  0.20166621  0.44039228     0.35980
N1067       N  0.05662050  0.26761190  0.55070078    -0.44260
N1068       N  0.97395420  0.23512998  0.42584148    -0.44260
C1069       C  0.08674262  0.81782293  0.67831190    -0.00680
C1070       C  0.11175691  0.78647784  0.65715263    -0.12550
C1071       C  0.11917924  0.78976740  0.61200863     0.01560
C1072       C  0.09982777  0.82345635  0.58722147    -0.00760
C1073       C  0.07147752  0.85101943  0.60819854    -0.12490
C1074       C  0.06775606  0.85082400  0.65273330     0.01450
H1075       H  0.12638033  0.76043227  0.67573404     0.14430
H1076       H  0.05871946  0.87853247  0.59131761     0.14430
C1077       C  0.05189446  0.89016753  0.67117728     0.36080
C1078       C  0.14763393  0.75925450  0.59184479     0.35980
N1079       N  0.04127444  0.92300155  0.68490299    -0.44260
N1080       N  0.17036042  0.73470658  0.57553206    -0.44260
C1081       C  0.16704656  0.88455663  0.59669016    -0.00680
C1082       C  0.14279635  0.91678042  0.61513697    -0.12550
C1083       C  0.15040408  0.93039553  0.65618899     0.01560
C1084       C  0.18080627  0.90873303  0.68287695    -0.00760
C1085       C  0.20561500  0.87531952  0.66486614    -0.12490
C1086       C  0.19963751  0.86390671  0.62125591     0.01450
H1087       H  0.11544231  0.93010396  0.59821767     0.14430
H1088       H  0.22973250  0.85879025  0.68434839     0.14430
C1089       C  0.22676521  0.83133909  0.60248929     0.36080
C1090       C  0.12403880  0.96607793  0.66885943     0.35980
N1091       N  0.24873049  0.80540119  0.58729581    -0.44260
N1092       N  0.10178493  0.99477724  0.67654337    -0.44260
C1093       C  0.07624896  0.83605151  0.33629718    -0.00680
C1094       C  0.09701347  0.87487538  0.34589197    -0.12550
C1095       C  0.12809988  0.88322623  0.38205541     0.01560
C1096       C  0.11233551  0.85176800  0.41851791    -0.00760
C1097       C  0.09209233  0.81252180  0.40845212    -0.12490
C1098       C  0.07589006  0.80368640  0.36773882     0.01450
H1099       H  0.08946284  0.89879630  0.32141333     0.14430
H1100       H  0.08946773  0.78774623  0.43302231     0.14430
C1101       C  0.05461615  0.76297284  0.36096974     0.36080
C1102       C  0.19237192  0.94492131  0.38555648     0.35980
N1103       N  0.03737963  0.73040865  0.35571366    -0.44260
N1104       N  0.22037002  0.96944455  0.38774379    -0.44260
C1105       C  0.15930671  0.92313429  0.32486058    -0.00680
C1106       C  0.12447772  0.95509151  0.35967799    -0.12550
C1107       C  0.12656946  0.94801535  0.41764542     0.01560
C1108       C  0.16484125  0.90842178  0.44162957    -0.00760
C1109       C  0.19801033  0.87439301  0.40620524    -0.12490
C1110       C  0.19452872  0.88179073  0.34800747     0.01450
H1111       H  0.10077686  0.97595625  0.34519475     0.14430
H1112       H  0.21735365  0.84843908  0.41975589     0.14430
C1113       C  0.22262949  0.85759421  0.32058556     0.36080
C1114       C  0.09065338  0.96546752  0.44016540     0.35980
N1115       N  0.24535069  0.83829482  0.29839204    -0.44260
N1116       N  0.05973881  0.98026023  0.45439636    -0.44260
C1117       C  0.17082373  0.03981876  0.50799868    -0.00680
C1118       C  0.20804118  0.01500536  0.49889955    -0.12550
C1119       C  0.20946441  0.96976951  0.50688922     0.01560
C1120       C  0.17291093  0.94817815  0.52299192    -0.00760
C1121       C  0.13620308  0.97322397  0.52950528    -0.12490
C1122       C  0.13413786  0.01750167  0.52152109     0.01450
H1123       H  0.23675842  0.03080016  0.48780253     0.14430
H1124       H  0.10744483  0.95676988  0.53620381     0.14430
C1125       C  0.09233608  0.03802584  0.52113096     0.36080
C1126       C  0.24825132  0.94600713  0.49773958     0.35980
N1127       N  0.05849061  0.05362513  0.51892309    -0.44260
N1128       N  0.27938764  0.92684177  0.49053406    -0.44260
C1129       C  0.05137608  0.83377816  0.50332589    -0.00680
C1130       C  0.03154671  0.79343854  0.49557899    -0.12550
C1131       C  0.98603438  0.78982008  0.49325372     0.01560
C1132       C  0.96016296  0.82639717  0.50100676    -0.00760
C1133       C  0.97997251  0.86487518  0.51074907    -0.12490
C1134       C  0.02393054  0.86939361  0.51181035     0.01450
H1135       H  0.05132189  0.76496817  0.49110791     0.14430
H1136       H  0.96004462  0.89335599  0.51487919     0.14430
C1137       C  0.03601134  0.91225802  0.52373944     0.36080
C1138       C  0.96674523  0.74911995  0.48265239     0.35980
N1139       N  0.03546433  0.94722199  0.53646115    -0.44260
N1140       N  0.95113809  0.71650851  0.47391873    -0.44260
loop_ 
_geom_bond_atom_site_label_1 
_geom_bond_atom_site_label_2 
_geom_bond_distance 
_geom_bond_site_symmetry_2 
_ccdc_geom_bond_type 
C1            C2   1.446       .  A
C1            C6   1.371       .  A
C1         C1096   1.572       .  S
C2            C3   1.448       .  A
C2         C1129   1.504       .  S
C3            C4   1.439       .  A
C3         C1072   1.509       .  S
C4            C5   1.408       .  A
C4         C1081   1.477       .  S
C5            C6   1.377       .  A
C5         C1120   1.520       .  S
C6         C1108   1.355       .  S
C7            C8   1.449       .  A
C7           C12   1.447       .  A
C7         C1033   1.564       .  S
C8            C9   1.433       .  A
C8         C1048   1.503       .  S
C9           C10   1.435       .  A
C9         C1117   1.514       .  S
C10          C11   1.448       .  A
C10        C1009   1.552       .  S
C11          C12   1.445       .  A
C11        C1021   1.504       .  S
C12        C1057   1.533       .  S
C13          C14   1.421       .  A
C13          C18   1.409       .  A
C13         C985   1.532       .  S
C14          C15   1.453       .  A
C14         C973   1.477       .  S
C15          C16   1.442       .  A
C15        C1060   1.568       .  S
C16          C17   1.460       .  A
C16         C949   1.500       .  S
C17          C18   1.438       .  A
C17         C964   1.541       .  S
C18         C997   1.502       .  S
C19          C20   1.434       .  A
C19          C24   1.433       .  A
C19         C901   1.507       .  S
C20          C21   1.424       .  A
C20        C1132   1.493       .  S
C21          C22   1.430       .  A
C21         C937   1.517       .  S
C22          C23   1.423       .  A
C22         C928   1.498       .  S
C23          C24   1.433       .  A
C23        C1000   1.505       .  S
C24         C913   1.523       .  S
C25          C26   1.470       .  A
C25          C30   1.452       .  A
C25         C844   1.549       .  S
C26          C27   1.447       .  A
C26         C889   1.560       .  S
C27          C28   1.438       .  A
C27         C868   1.491       .  S
C28          C29   1.416       .  A
C28         C853   1.534       .  S
C29          C30   1.412       .  A
C29         C877   1.506       .  S
C30         C829   1.497       .  S
C31          C32   1.426       .  A
C31          C36   1.430       .  A
C31         C781   1.497       .  S
C32          C33   1.448       .  A
C32         C892   1.508       .  S
C33          C34   1.460       .  A
C33         C805   1.562       .  S
C34          C35   1.435       .  A
C34         C796   1.486       .  S
C35          C36   1.438       .  A
C35         C817   1.546       .  S
C36         C772   1.518       .  S
C37          C38   1.421       .  A
C37          C42   1.445       .  A
C37         C712   1.500       .  S
C38          C39   1.434       .  A
C38         C880   1.518       .  S
C39          C40   1.458       .  A
C39         C733   1.550       .  S
C40          C41   1.440       .  A
C40         C748   1.498       .  S
C41          C42   1.445       .  A
C41         C760   1.539       .  S
C42         C721   1.548       .  S
C43          C44   1.448       .  A
C43          C48   1.455       .  A
C43         C661   1.486       .  S
C44          C45   1.434       .  A
C44         C820   1.566       .  S
C45          C46   1.448       .  A
C45         C688   1.509       .  S
C46          C47   1.449       .  A
C46         C697   1.517       .  S
C47          C48   1.438       .  A
C47         C757   1.543       .  S
C48         C673   1.559       .  S
C49          C50   1.436       .  A
C49          C54   1.427       .  A
C49         C589   1.506       .  S
C50          C51   1.438       .  A
C50         C652   1.495       .  S
C51          C52   1.433       .  A
C51         C616   1.528       .  S
C52          C53   1.408       .  A
C52         C625   1.484       .  S
C53          C54   1.408       .  A
C53         C637   1.504       .  S
C54         C601   1.495       .  S
C55          C56   1.419       .  A
C55          C60   1.439       .  A
C55         C568   1.505       .  S
C56          C57   1.428       .  A
C56         C640   1.498       .  S
C57          C58   1.442       .  A
C57         C544   1.537       .  S
C58          C59   1.439       .  A
C58         C529   1.509       .  S
C59          C60   1.445       .  A
C59         C577   1.507       .  S
C60         C556   1.542       .  S
C61          C62   1.441       .  A
C61          C66   1.436       .  A
C61         C493   1.537       .  S
C62          C63   1.423       .  A
C62         C580   1.505       .  S
C63          C64   1.426       .  A
C63         C469   1.510       .  S
C64          C65   1.422       .  A
C64         C481   1.491       .  S
C65          C66   1.419       .  A
C65         C520   1.514       .  S
C66         C505   1.487       .  S
C67          C68   1.423       .  A
C67          C72   1.449       .  A
C67         C445   1.495       .  S
C68          C69   1.424       .  A
C68         C649   1.501       .  S
C69          C70   1.437       .  A
C69         C421   1.541       .  S
C70          C71   1.435       .  A
C70         C433   1.493       .  S
C71          C72   1.446       .  A
C71         C517   1.514       .  S
C72         C460   1.557       .  S
O73          C81   1.270       .  A
O73         Co93   1.899       .  S
O74          C82   1.274       .  A
O74         Co94   1.990   1_545  S
O75          C83   1.268       .  A
O75         Co95   1.984       .  S
O76          C84   1.279       .  A
O76         Co96   2.013       .  S
O77          C83   1.269       .  A
O77         Co94   1.994       .  S
O78          C84   1.270       .  A
O78         Co93   1.984   1_545  S
O79          C82   1.269       .  A
O79         Co96   1.991       .  S
O80          C81   1.301       .  A
O80         Co95   2.136       .  S
C81         C342   1.483       .  S
C82         C258   1.465       .  S
C83         C170   1.465       .  S
C84         C110   1.474       .  S
O85          C98   1.273       .  A
O85         Co93   2.041   1_545  S
O86          C99   1.279       .  A
O86         Co94   2.029       .  S
O87         C100   1.274       .  A
O87         Co95   1.909       .  S
O88         C101   1.257       .  A
O88         Co96   1.948       .  S
O89         C101   1.274       .  A
O89         Co94   2.004   1_545  S
O90         C100   1.289       .  A
O90         Co93   2.086       .  S
O91          C98   1.255       .  A
O91         Co96   1.967       .  S
O92          C99   1.274       .  A
O92         Co95   1.995       .  S
Co93         O97   1.974   1_565  S
Co94         O97   2.021   1_565  S
Co95         O97   1.999   1_565  S
Co96         O97   2.011       .  S
C98        C1012   1.480       .  S
C99         C685   1.494       .  S
C100       C1084   1.478       .  S
C101        C793   1.474       .  S
O102        C110   1.269       .  A
O102       Co122   1.992       .  S
O103        C111   1.269       .  A
O103       Co123   1.993   1_655  S
O104        C112   1.275       .  A
O104       Co124   2.033       .  S
O105        C113   1.272       .  A
O105       Co125   2.022       .  S
O106        C112   1.260       .  A
O106       Co123   1.982       .  S
O107        C113   1.274       .  A
O107       Co122   1.996   1_655  S
O108        C111   1.270       .  A
O108       Co125   2.006       .  S
O109        C110   1.268       .  A
O109       Co124   1.995       .  S
C111        C314   1.475       .  S
C112        C256   1.484       .  S
C113        C371   1.487       .  S
O114        C127   1.266       .  A
O114       Co122   1.991   1_655  S
O115        C128   1.281       .  A
O115       Co123   2.070       .  S
O116        C129   1.258       .  A
O116       Co124   1.963       .  S
O117        C130   1.263       .  A
O117       Co125   1.965       .  S
O118        C130   1.267       .  A
O118       Co123   2.013   1_655  S
O119        C129   1.273       .  A
O119       Co122   2.037       .  S
O120        C127   1.262       .  A
O120       Co125   1.980       .  S
O121        C128   1.252       .  A
O121       Co124   1.939       .  S
Co122       O126   2.103       .  S
Co123       O126   2.110       .  S
Co124       O126   2.094       .  S
Co125       O126   2.113   1_655  S
C127        C952   1.494       .  S
C128        C613   1.476       .  S
C129       C1024   1.494       .  S
C130        C448   1.487       .  S
O131        C139   1.265       .  A
O131       Co151   1.982       .  S
O132        C140   1.275       .  A
O132       Co152   1.896   1_655  S
O133        C141   1.272       .  A
O133       Co153   2.008       .  S
O134        C142   1.282       .  A
O134       Co154   2.033       .  S
O135        C141   1.279       .  A
O135       Co152   2.008       .  S
O136        C142   1.263       .  A
O136       Co151   1.991   1_655  S
O137        C140   1.295       .  A
O137       Co154   2.115       .  S
O138        C139   1.281       .  A
O138       Co153   2.011       .  S
C139        C226   1.470       .  S
C140        C402   1.476       .  S
C141        C171   1.488       .  S
C142        C286   1.492       .  S
O143        C156   1.281       .  A
O143       Co151   2.023   1_655  S
O144        C157   1.276       .  A
O144       Co152   2.008       .  S
O145        C158   1.265       .  A
O145       Co153   1.982       .  S
O146        C159   1.280       .  A
O146       Co154   1.944       .  S
O147        C159   1.291       .  A
O147       Co152   2.106   1_655  S
O148        C158   1.278       .  A
O148       Co151   2.032       .  S
O149        C156   1.273       .  A
O149       Co154   1.983       .  S
O150        C157   1.269       .  A
O150       Co153   1.990       .  S
Co151       O155   2.029       .  S
Co152       O155   1.962       .  S
Co153       O155   2.032       .  S
Co154       O155   2.014   1_655  S
C156        C940   1.486       .  S
C157        C532   1.501       .  S
C158       C1093   1.510       .  S
C159        C472   1.513       .  S
O160        C168   1.268       .  A
O160       Co180   2.012       .  S
O161        C169   1.271       .  A
O161       Co181   2.015       .  S
O162        C170   1.265       .  A
O162       Co182   1.974       .  S
O163        C171   1.260       .  A
O163       Co183   1.978       .  S
O164        C170   1.271       .  A
O164       Co181   2.008       .  S
O165        C171   1.278       .  A
O165       Co180   2.043       .  S
O166        C169   1.270       .  A
O166       Co183   1.995   1_556  S
O167        C168   1.266       .  A
O167       Co182   1.990   1_554  S
C168        C229   1.482       .  S
C169        C345   1.484       .  S
O172        C185   1.248       .  A
O172       Co180   1.940       .  S
O173        C186   1.265       .  A
O173       Co181   1.986       .  S
O174        C187   1.273       .  A
O174       Co182   2.044   1_554  S
O175        C188   1.268       .  A
O175       Co183   2.015   1_556  S
O176        C188   1.267       .  A
O176       Co181   1.976       .  S
O177        C187   1.256       .  A
O177       Co180   1.953       .  S
O178        C185   1.277       .  A
O178       Co183   2.062       .  S
O179        C186   1.274       .  A
O179       Co182   2.020       .  S
Co180       O184   2.098   1_554  S
Co181       O184   2.118       .  S
Co182       O184   2.116       .  S
Co183       O184   2.120   1_554  S
C185        C541   1.475       .  S
C186        C700   1.498       .  S
C187        C745   1.486       .  S
C188        C604   1.490       .  S
O189        C197   1.275       .  A
O189       Co209   2.042       .  S
O190        C198   1.273       .  A
O190       Co210   2.021       .  S
O191        C199   1.260       .  A
O191       Co211   1.966   1_655  S
O192        C200   1.258       .  A
O192       Co212   1.982       .  S
O193        C199   1.275       .  A
O193       Co210   2.040       .  S
O194        C200   1.271       .  A
O194       Co209   2.024       .  S
O195        C198   1.261       .  A
O195       Co212   1.989   1_655  S
O196        C197   1.249       .  A
O196       Co211   1.953       .  S
C197        C228   1.467       .  S
C198        C316   1.484       .  S
C199        C284   1.485       .  S
C200        C257   1.476       .  S
O201        C214   1.244       .  A
O201       Co209   1.944       .  S
O202        C215   1.254       .  A
O202       Co210   1.945       .  S
O203        C216   1.277       .  A
O203       Co211   2.085       .  S
O204        C217   1.273       .  A
O204       Co212   2.056   1_655  S
O205        C217   1.259       .  A
O205       Co210   1.973       .  S
O206        C216   1.247       .  A
O206       Co209   1.945       .  S
O207        C214   1.282       .  A
O207       Co212   2.086       .  S
O208        C215   1.265       .  A
O208       Co211   1.993   1_655  S
Co209       O213   2.095       .  S
Co210       O213   2.104   1_655  S
Co211       O213   2.136       .  S
Co212       O213   2.133       .  S
C214        C553   1.496       .  S
C215        C976   1.457       .  S
C216       C1036   1.499       .  S
C217        C496   1.497       .  S
O218        C226   1.265       .  A
O218       Co238   1.983       .  S
O219        C227   1.278       .  A
O219       Co239   2.038       .  S
O220        C228   1.270       .  A
O220       Co240   1.990   1_545  S
O221        C229   1.263       .  A
O221       Co241   1.993       .  S
O222        C228   1.263       .  A
O222       Co239   1.991       .  S
O223        C229   1.270       .  A
O223       Co238   2.023       .  S
O224        C227   1.266       .  A
O224       Co241   1.983   1_545  S
O225        C226   1.273       .  A
O225       Co240   1.987       .  S
C227        C255   1.483       .  S
O230        C243   1.253       .  A
O230       Co238   1.958       .  S
O231        C244   1.266       .  A
O231       Co239   1.972       .  S
O232        C245   1.263       .  A
O232       Co240   2.007       .  S
O233        C246   1.273       .  A
O233       Co241   2.034   1_545  S
O234        C246   1.257       .  A
O234       Co239   1.957       .  S
O235        C245   1.258       .  A
O235       Co238   1.937       .  S
O236        C243   1.279       .  A
O236       Co241   2.064       .  S
O237        C244   1.274       .  A
O237       Co240   2.036   1_545  S
Co238       O242   2.102       .  S
Co239       O242   2.110   1_545  S
Co240       O242   2.122       .  S
Co241       O242   2.107       .  S
C243        C736   1.489       .  S
C244       C1045   1.500       .  S
C245       C1105   1.435       .  S
C246        C856   1.482       .  S
O247        C255   1.270       .  A
O247       Co267   1.989       .  S
O248        C256   1.276       .  A
O248       Co268   1.998   1_556  S
O249        C257   1.268       .  A
O249       Co269   2.007       .  S
O250        C258   1.272       .  A
O250       Co270   2.023       .  S
O251        C257   1.269       .  A
O251       Co268   1.984       .  S
O252        C258   1.254       .  A
O252       Co267   1.962   1_556  S
O253        C256   1.273       .  A
O253       Co270   2.017       .  S
O254        C255   1.274       .  A
O254       Co269   2.028       .  S
O259        C272   1.285       .  A
O259       Co267   2.087   1_556  S
O260        C273   1.276       .  A
O260       Co268   2.031       .  S
O261        C274   1.260       .  A
O261       Co269   1.976       .  S
O262        C275   1.259       .  A
O262       Co270   1.965       .  S
O263        C275   1.262       .  A
O263       Co268   1.997   1_556  S
O264        C274   1.264       .  A
O264       Co267   1.984       .  S
O265        C272   1.254       .  A
O265       Co270   1.956       .  S
O266        C273   1.263       .  A
O266       Co269   1.961       .  S
Co267       O271   2.100       .  S
Co268       O271   2.109       .  S
Co269       O271   2.111       .  S
Co270       O271   2.099   1_556  S
C272        C808   1.496       .  S
C273        C565   1.487       .  S
C274        C865   1.485       .  S
C275        C628   1.476       .  S
O276        C284   1.288       .  A
O276       Co296   2.106       .  S
O277        C285   1.278       .  A
O277       Co297   2.012       .  S
O278        C286   1.286       .  A
O278       Co298   2.022       .  S
O279        C287   1.276       .  A
O279       Co299   1.994   1_545  S
O280        C286   1.269       .  A
O280       Co297   1.995       .  S
O281        C287   1.278       .  A
O281       Co296   2.019       .  S
O282        C285   1.271       .  A
O282       Co299   1.985       .  S
O283        C284   1.282       .  A
O283       Co298   1.924   1_545  S
C285        C400   1.475       .  S
C287        C313   1.477       .  S
O288        C301   1.272       .  A
O288       Co296   1.988       .  S
O289        C302   1.271       .  A
O289       Co297   1.983       .  S
O290        C303   1.298       .  A
O290       Co298   2.124   1_545  S
O291        C304   1.277       .  A
O291       Co299   2.025       .  S
O292        C304   1.265       .  A
O292       Co297   1.968       .  S
O293        C303   1.277       .  A
O293       Co296   1.934       .  S
O294        C301   1.271       .  A
O294       Co299   1.987   1_545  S
O295        C302   1.277       .  A
O295       Co298   2.008       .  S
Co296       O300   2.006   1_545  S
Co297       O300   2.020       .  S
Co298       O300   1.968       .  S
Co299       O300   2.021       .  S
C301        C832   1.480       .  S
C302        C925   1.492       .  S
C303        C988   1.517       .  S
C304        C709   1.491       .  S
O305        C313   1.273       .  A
O305       Co325   2.034       .  S
O306        C314   1.269       .  A
O306       Co326   2.015       .  S
O307        C315   1.271       .  A
O307       Co327   2.008   1_556  S
O308        C316   1.274       .  A
O308       Co328   2.000   1_554  S
O309        C315   1.272       .  A
O309       Co326   2.014       .  S
O310        C316   1.272       .  A
O310       Co325   2.012       .  S
O311        C314   1.259       .  A
O311       Co328   1.975       .  S
O312        C313   1.260       .  A
O312       Co327   1.971       .  S
C315        C373   1.492       .  S
O317        C330   1.262       .  A
O317       Co325   1.979       .  S
O318        C331   1.255       .  A
O318       Co326   1.947       .  S
O319        C332   1.284       .  A
O319       Co327   2.081       .  S
O320        C333   1.283       .  A
O320       Co328   2.084       .  S
O321        C333   1.254       .  A
O321       Co326   1.947       .  S
O322        C332   1.258       .  A
O322       Co325   1.959       .  S
O323        C330   1.259       .  A
O323       Co328   1.981   1_554  S
O324        C331   1.267       .  A
O324       Co327   2.015   1_556  S
Co325       O329   2.113       .  S
Co326       O329   2.096   1_556  S
Co327       O329   2.118       .  S
Co328       O329   2.122   1_556  S
C330        C508   1.480       .  S
C331        C784   1.467       .  S
C332        C841   1.496       .  S
C333        C457   1.488       .  S
O334        C342   1.301       .  A
O334       Co354   2.141       .  S
O335        C343   1.278       .  A
O335       Co355   2.014       .  S
O336        C344   1.277       .  A
O336       Co356   1.999   1_655  S
O337        C345   1.274       .  A
O337       Co357   2.006   1_455  S
O338        C344   1.270       .  A
O338       Co355   1.989       .  S
O339        C345   1.276       .  A
O339       Co354   2.007       .  S
O340        C343   1.266       .  A
O340       Co357   1.985       .  S
O341        C342   1.270       .  A
O341       Co356   1.893       .  S
C343        C401   1.472       .  S
C344        C374   1.474       .  S
O346        C359   1.274       .  A
O346       Co354   1.997       .  S
O347        C360   1.259       .  A
O347       Co355   1.969       .  S
O348        C361   1.292       .  A
O348       Co356   2.105       .  S
O349        C362   1.283       .  A
O349       Co357   2.065       .  S
O350        C362   1.251       .  A
O350       Co355   1.934       .  S
O351        C361   1.278       .  A
O351       Co354   1.929       .  S
O352        C359   1.272       .  A
O352       Co357   1.996   1_455  S
O353        C360   1.272       .  A
O353       Co356   2.013   1_655  S
Co354       O358   2.007   1_455  S
Co355       O358   2.022       .  S
Co356       O358   1.963   1_455  S
Co357       O358   2.033       .  S
C359        C592   1.487       .  S
C360        C904   1.489       .  S
C361       C1069   1.499       .  S
C362        C424   1.473       .  S
O363        C371   1.258       .  A
O363       Co383   1.989   1_545  S
O364        C372   1.273       .  A
O364       Co384   1.993       .  S
O365        C373   1.276       .  A
O365       Co385   2.025       .  S
O366        C374   1.278       .  A
O366       Co386   2.023       .  S
O367        C373   1.272       .  A
O367       Co384   1.998   1_545  S
O368        C374   1.260       .  A
O368       Co383   1.975       .  S
O369        C372   1.263       .  A
O369       Co386   2.009       .  S
O370        C371   1.271       .  A
O370       Co385   2.031       .  S
C372        C403   1.484       .  S
O375        C388   1.275       .  A
O375       Co383   2.053       .  S
O376        C389   1.271       .  A
O376       Co384   2.024   1_545  S
O377        C390   1.249       .  A
O377       Co385   1.945       .  S
O378        C391   1.264       .  A
O378       Co386   1.963       .  S
O379        C391   1.273       .  A
O379       Co384   2.021       .  S
O380        C390   1.279       .  A
O380       Co383   2.064   1_545  S
O381        C388   1.259       .  A
O381       Co386   1.967       .  S
O382        C389   1.250       .  A
O382       Co385   1.952       .  S
Co383       O387   2.122       .  S
Co384       O387   2.126       .  S
Co385       O387   2.099   1_545  S
Co386       O387   2.111       .  S
C388        C916   1.503       .  S
C389        C769   1.479       .  S
C390        C961   1.478       .  S
C391        C664   1.484       .  S
O392        C400   1.260       .  A
O392       Co412   1.994   1_554  S
O393        C401   1.271       .  A
O393       Co413   1.979       .  S
O394        C402   1.325       .  A
O394       Co414   2.180       .  S
O395        C403   1.277       .  A
O395       Co415   2.045       .  S
O396        C402   1.281       .  A
O396       Co413   1.875   1_554  S
O397        C403   1.252       .  A
O397       Co412   1.973       .  S
O398        C401   1.269       .  A
O398       Co415   1.996       .  S
O399        C400   1.258       .  A
O399       Co414   1.981       .  S
O404        C417   1.288       .  A
O404       Co412   2.082       .  S
O405        C418   1.248       .  A
O405       Co413   2.040   1_554  S
O406        C419   1.256       .  A
O406       Co414   1.961       .  S
O407        C420   1.266       .  A
O407       Co415   1.950       .  S
O408        C420   1.282       .  A
O408       Co413   2.045       .  S
O409        C419   1.271       .  A
O409       Co412   2.035   1_554  S
O410        C417   1.254       .  A
O410       Co415   1.960       .  S
O411        C418   1.228       .  A
O411       Co414   1.956       .  S
Co412       O416   2.091       .  S
Co413       O416   2.005       .  S
Co414       O416   2.100   1_554  S
Co415       O416   2.067       .  S
C417        C676   1.499       .  S
C418        C484   1.479       .  S
C419        C724   1.479       .  S
C420        C436   1.485       .  S
C421        C422   1.417       .  A
C421        C426   1.421       .  A
C422        C423   1.388       .  A
C422        H427   1.057       .  S
C423        C424   1.394       .  A
C423        C430   1.442       .  S
C424        C425   1.403       .  A
C425        C426   1.411       .  A
C425        H428   1.084       .  S
C426        C429   1.440       .  S
C429        N431   1.157       .  T
C430        N432   1.157   1_655  T
C433        C434   1.407       .  A
C433        C438   1.406       .  A
C434        C435   1.396       .  A
C434        H439   1.079       .  S
C435        C436   1.413       .  A
C435        C442   1.445       .  S
C436        C437   1.411       .  A
C437        C438   1.396       .  A
C437        H440   1.084       .  S
C438        C441   1.446       .  S
C441        N443   1.158       .  T
C442        N444   1.157       .  T
C445        C446   1.398       .  A
C445        C450   1.407       .  A
C446        C447   1.389       .  A
C446        H451   1.074       .  S
C447        C448   1.415       .  A
C447        C454   1.441       .  S
C448        C449   1.411       .  A
C449        C450   1.403       .  A
C449        H452   1.084       .  S
C450        C453   1.443       .  S
C453        N455   1.157       .  T
C454        N456   1.156       .  T
C457        C458   1.400       .  A
C457        C462   1.412       .  A
C458        C459   1.407       .  A
C458        H463   1.080       .  S
C459        C460   1.419       .  A
C459        C466   1.439       .  S
C460        C461   1.411       .  A
C461        C462   1.410       .  A
C461        H464   1.079       .  S
C462        C465   1.442       .  S
C465        N467   1.157       .  T
C466        N468   1.157       .  T
C469        C470   1.393       .  A
C469        C474   1.420       .  A
C470        C471   1.396       .  A
C470        H475   1.083       .  S
C471        C472   1.420       .  A
C471        C478   1.439       .  S
C472        C473   1.410       .  A
C473        C474   1.422       .  A
C473        H476   1.084       .  S
C474        C477   1.441       .  S
C477        N479   1.157       .  T
C478        N480   1.156       .  T
C481        C482   1.409       .  A
C481        C486   1.412       .  A
C482        C483   1.406       .  A
C482        H487   1.085       .  S
C483        C484   1.411       .  A
C483        C490   1.442       .  S
C484        C485   1.393       .  A
C485        C486   1.383       .  A
C485        H488   1.079       .  S
C486        C489   1.437       .  S
C489        N491   1.157       .  T
C490        N492   1.157       .  T
C493        C494   1.424       .  A
C493        C498   1.398       .  A
C494        C495   1.421       .  A
C494        H499   1.084       .  S
C495        C496   1.413       .  A
C495        C502   1.442       .  S
C496        C497   1.390       .  A
C497        C498   1.399       .  A
C497        H500   1.056       .  S
C498        C501   1.438       .  S
C501        N503   1.158       .  T
C502        N504   1.157       .  T
C505        C506   1.396       .  A
C505        C510   1.409       .  A
C506        C507   1.384       .  A
C506        H511   1.086       .  S
C507        C508   1.420       .  A
C507        C514   1.447       .  S
C508        C509   1.408       .  A
C509        C510   1.402       .  A
C509        H512   1.084       .  S
C510        C513   1.443       .  S
C513        N515   1.157       .  T
C514        N516   1.158       .  T
C517        C518   1.387       .  A
C517        C522   1.422       .  A
C518        C519   1.377   1_556  A
C518        H523   1.071       .  S
C519        C520   1.422       .  A
C519        C526   1.439       .  S
C520        C521   1.409       .  A
C521        C522   1.410   1_554  A
C521        H524   1.082       .  S
C522        C525   1.438       .  S
C525        N527   1.157       .  T
C526        N528   1.159       .  T
C529        C530   1.402       .  A
C529        C534   1.415       .  A
C530        C531   1.393       .  A
C530        H535   1.086       .  S
C531        C532   1.414       .  A
C531        C538   1.434       .  S
C532        C533   1.409       .  A
C533        C534   1.410       .  A
C533        H536   1.084       .  S
C534        C537   1.441       .  S
C537        N539   1.157       .  T
C538        N540   1.154       .  T
C541        C542   1.404       .  A
C541        C546   1.386       .  A
C542        C543   1.414       .  A
C542        H547   1.084       .  S
C543        C544   1.426       .  A
C543        C550   1.441       .  S
C544        C545   1.416       .  A
C545        C546   1.385       .  A
C545        H548   1.063       .  S
C546        C549   1.441       .  S
C549        N551   1.158   1_554  T
C550        N552   1.157       .  T
C553        C554   1.398       .  A
C553        C558   1.420       .  A
C554        C555   1.405       .  A
C554        H559   1.084       .  S
C555        C556   1.418       .  A
C555        C562   1.442       .  S
C556        C557   1.409       .  A
C557        C558   1.411       .  A
C557        H560   1.072       .  S
C558        C561   1.445       .  S
C561        N563   1.157       .  T
C562        N564   1.157       .  T
C565        C566   1.403       .  A
C565        C570   1.416       .  A
C566        C567   1.395       .  A
C566        H571   1.084       .  S
C567        C568   1.415       .  A
C567        C574   1.439       .  S
C568        C569   1.402       .  A
C569        C570   1.399       .  A
C569        H572   1.084       .  S
C570        C573   1.438       .  S
C573        N575   1.155       .  T
C574        N576   1.156       .  T
C577        C578   1.382       .  A
C577        C582   1.423       .  A
C578        C579   1.379   1_455  A
C578        H583   1.076       .  S
C579        C580   1.407       .  A
C579        C586   1.421       .  S
C580        C581   1.409       .  A
C581        C582   1.423   1_655  A
C581        H584   1.084       .  S
C582        C585   1.438       .  S
C585        N587   1.157       .  T
C586        N588   1.149       .  T
C589        C590   1.410       .  A
C589        C594   1.420       .  A
C590        C591   1.414       .  A
C590        H595   1.084       .  S
C591        C592   1.413       .  A
C591        C598   1.441       .  S
C592        C593   1.398       .  A
C593        C594   1.386       .  A
C593        H596   1.086       .  S
C594        C597   1.440       .  S
C597        N599   1.157       .  T
C598        N600   1.157       .  T
C601        C602   1.393       .  A
C601        C606   1.412       .  A
C602        C603   1.390       .  A
C602        H607   1.080       .  S
C603        C604   1.413       .  A
C603        C610   1.438       .  S
C604        C605   1.410       .  A
C605        C606   1.410       .  A
C605        H608   1.084       .  S
C606        C609   1.442       .  S
C609        N611   1.157       .  T
C610        N612   1.156       .  T
C613        C614   1.403       .  A
C613        C618   1.390       .  A
C614        C615   1.413       .  A
C614        H619   1.084       .  S
C615        C616   1.425       .  A
C615        C622   1.442       .  S
C616        C617   1.413       .  A
C617        C618   1.387       .  A
C617        H620   1.063       .  S
C618        C621   1.440       .  S
C621        N623   1.157   1_455  T
C622        N624   1.157       .  T
C625        C626   1.397       .  A
C625        C630   1.411       .  A
C626        C627   1.386       .  A
C626        H631   1.083       .  S
C627        C628   1.417       .  A
C627        C634   1.442       .  S
C628        C629   1.404       .  A
C629        C630   1.398       .  A
C629        H632   1.084       .  S
C630        C633   1.444       .  S
C633        N635   1.157       .  T
C634        N636   1.156       .  T
C637        C638   1.413       .  A
C637        C642   1.414       .  A
C638        C639   1.418   1_556  A
C638        H643   1.083       .  S
C639        C640   1.415       .  A
C639        C646   1.440       .  S
C640        C641   1.392       .  A
C641        C642   1.380   1_554  A
C641        H644   1.077       .  S
C642        C645   1.438       .  S
C645        N647   1.157       .  T
C646        N648   1.157       .  T
C649        C650   1.422       .  A
C649        C654   1.409       .  A
C650        C651   1.428   1_655  A
C650        H655   1.083       .  S
C651        C652   1.417       .  A
C651        C658   1.439       .  S
C652        C653   1.383       .  A
C653        C654   1.376   1_455  A
C653        H656   1.070       .  S
C654        C657   1.436       .  S
C657        N659   1.155       .  T
C658        N660   1.157       .  T
C661        C662   1.403       .  A
C661        C666   1.404       .  A
C662        C663   1.405       .  A
C662        H667   1.084       .  S
C663        C664   1.420       .  A
C663        C670   1.443       .  S
C664        C665   1.408       .  A
C665        C666   1.390       .  A
C665        H668   1.082       .  S
C666        C669   1.443       .  S
C669        N671   1.157       .  T
C670        N672   1.157       .  T
C673        C674   1.418       .  A
C673        C678   1.410       .  A
C674        C675   1.421       .  A
C674        H679   1.081       .  S
C675        C676   1.423       .  A
C675        C682   1.441       .  S
C676        C677   1.401       .  A
C677        C678   1.403       .  A
C677        H680   1.084       .  S
C678        C681   1.443       .  S
C681        N683   1.158       .  T
C682        N684   1.158       .  T
C685        C686   1.396       .  A
C685        C690   1.414       .  A
C686        C687   1.393       .  A
C686        H691   1.072       .  S
C687        C688   1.401       .  A
C687        C694   1.429       .  S
C688        C689   1.412       .  A
C689        C690   1.418       .  A
C689        H692   1.084       .  S
C690        C693   1.442       .  S
C693        N695   1.157       .  T
C694        N696   1.152       .  T
C697        C698   1.415       .  A
C697        C702   1.419       .  A
C698        C699   1.418       .  A
C698        H703   1.084       .  S
C699        C700   1.415       .  A
C699        C706   1.441       .  S
C700        C701   1.394       .  A
C701        C702   1.388       .  A
C701        H704   1.085       .  S
C702        C705   1.433       .  S
C705        N707   1.158       .  T
C706        N708   1.157       .  T
C709        C710   1.405       .  A
C709        C714   1.420       .  A
C710        C711   1.395       .  A
C710        H715   1.084       .  S
C711        C712   1.409       .  A
C711        C718   1.439       .  S
C712        C713   1.403       .  A
C713        C714   1.403       .  A
C713        H716   1.085       .  S
C714        C717   1.444       .  S
C717        N719   1.157       .  T
C718        N720   1.157       .  T
C721        C722   1.413       .  A
C721        C726   1.414       .  A
C722        C723   1.411       .  A
C722        H727   1.079       .  S
C723        C724   1.408       .  A
C723        C730   1.442       .  S
C724        C725   1.389       .  A
C725        C726   1.399       .  A
C725        H728   1.066       .  S
C726        C729   1.441       .  S
C729        N731   1.157       .  T
C730        N732   1.157       .  T
C733        C734   1.420       .  A
C733        C738   1.412       .  A
C734        C735   1.410       .  A
C734        H739   1.068       .  S
C735        C736   1.409       .  A
C735        C742   1.443       .  S
C736        C737   1.400       .  A
C737        C738   1.406       .  A
C737        H740   1.084       .  S
C738        C741   1.443       .  S
C741        N743   1.158       .  T
C742        N744   1.157   1_565  T
C745        C746   1.403       .  A
C745        C750   1.419       .  A
C746        C747   1.397       .  A
C746        H751   1.078       .  S
C747        C748   1.398       .  A
C747        C754   1.433       .  S
C748        C749   1.400       .  A
C749        C750   1.403       .  A
C749        H752   1.084       .  S
C750        C753   1.444       .  S
C753        N755   1.157       .  T
C754        N756   1.157       .  T
C757        C758   1.418       .  A
C757        C762   1.429       .  A
C758        C759   1.425   1_556  A
C758        H763   1.079       .  S
C759        C760   1.427       .  A
C759        C766   1.440       .  S
C760        C761   1.391       .  A
C761        C762   1.388   1_554  A
C761        H764   1.070       .  S
C762        C765   1.436       .  S
C765        N767   1.158       .  T
C766        N768   1.157       .  T
C769        C770   1.385       .  A
C769        C774   1.416       .  A
C770        C771   1.382       .  A
C770        H775   1.086       .  S
C771        C772   1.428       .  A
C771        C778   1.433       .  S
C772        C773   1.408       .  A
C773        C774   1.412       .  A
C773        H776   1.084       .  S
C774        C777   1.442       .  S
C777        N779   1.157       .  T
C778        N780   1.156       .  T
C781        C782   1.407       .  A
C781        C786   1.411       .  A
C782        C783   1.407       .  A
C782        H787   1.084       .  S
C783        C784   1.413       .  A
C783        C790   1.443       .  S
C784        C785   1.387       .  A
C785        C786   1.385       .  A
C785        H788   1.087       .  S
C786        C789   1.425       .  S
C789        N791   1.153   1_556  T
C790        N792   1.157       .  T
C793        C794   1.397       .  A
C793        C798   1.413       .  A
C794        C795   1.381       .  A
C794        H799   1.086       .  S
C795        C796   1.412       .  A
C795        C802   1.433       .  S
C796        C797   1.403       .  A
C797        C798   1.398       .  A
C797        H800   1.082       .  S
C798        C801   1.444       .  S
C801        N803   1.157       .  T
C802        N804   1.156       .  T
C805        C806   1.409       .  A
C805        C810   1.420       .  A
C806        C807   1.408       .  A
C806        H811   1.076       .  S
C807        C808   1.409       .  A
C807        C814   1.441       .  S
C808        C809   1.406       .  A
C809        C810   1.417       .  A
C809        H812   1.084       .  S
C810        C813   1.437       .  S
C813        N815   1.157       .  T
C814        N816   1.157       .  T
C817        C818   1.385       .  A
C817        C822   1.452       .  A
C818        C819   1.377   1_545  A
C818        H823   1.070       .  S
C819        C820   1.396       .  A
C819        C826   1.454       .  S
C820        C821   1.435       .  A
C821        C822   1.458   1_565  A
C821        H824   1.082       .  S
C822        C825   1.437       .  S
C825        N827   1.158       .  T
C826        N828   1.158   1_565  T
C829        C830   1.412       .  A
C829        C834   1.401       .  A
C830        C831   1.409       .  A
C830        H835   1.084       .  S
C831        C832   1.410       .  A
C831        C838   1.442       .  S
C832        C833   1.402       .  A
C833        C834   1.381       .  A
C833        H836   1.084       .  S
C834        C837   1.431       .  S
C837        N839   1.153       .  T
C838        N840   1.157       .  T
C841        C842   1.407       .  A
C841        C846   1.393       .  A
C842        C843   1.420       .  A
C842        H847   1.084       .  S
C843        C844   1.426       .  A
C843        C850   1.442       .  S
C844        C845   1.403       .  A
C845        C846   1.399       .  A
C845        H848   1.042       .  S
C846        C849   1.442       .  S
C849        N851   1.157   1_554  T
C850        N852   1.157       .  T
C853        C854   1.403       .  A
C853        C858   1.419       .  A
C854        C855   1.390       .  A
C854        H859   1.047       .  S
C855        C856   1.394       .  A
C855        C862   1.448       .  S
C856        C857   1.412       .  A
C857        C858   1.421       .  A
C857        H860   1.084       .  S
C858        C861   1.441       .  S
C861        N863   1.157       .  T
C862        N864   1.158   1_545  T
C865        C866   1.406       .  A
C865        C870   1.417       .  A
C866        C867   1.381       .  A
C866        H871   1.085       .  S
C867        C868   1.408       .  A
C867        C874   1.447       .  S
C868        C869   1.403       .  A
C869        C870   1.408       .  A
C869        H872   1.084       .  S
C870        C873   1.437       .  S
C873        N875   1.155       .  T
C874        N876   1.155       .  T
C877        C878   1.395       .  A
C877        C882   1.414       .  A
C878        C879   1.390   1_545  A
C878        H883   1.086       .  S
C879        C880   1.402       .  A
C879        C886   1.423       .  S
C880        C881   1.418       .  A
C881        C882   1.421   1_565  A
C881        H884   1.083       .  S
C882        C885   1.440       .  S
C885        N887   1.157       .  T
C886        N888   1.152       .  T
C889        C890   1.424       .  A
C889        C894   1.419       .  A
C890        C891   1.441   1_554  A
C890        H895   1.083       .  S
C891        C892   1.425       .  A
C891        C898   1.440       .  S
C892        C893   1.376       .  A
C893        C894   1.371   1_556  A
C893        H896   1.073       .  S
C894        C897   1.430       .  S
C897        N899   1.156       .  T
C898        N900   1.157       .  T
C901        C902   1.404       .  A
C901        C906   1.406       .  A
C902        C903   1.388       .  A
C902        H907   1.078       .  S
C903        C904   1.409       .  A
C903        C910   1.443       .  S
C904        C905   1.414       .  A
C905        C906   1.409       .  A
C905        H908   1.084       .  S
C906        C909   1.441       .  S
C909        N911   1.157       .  T
C910        N912   1.157       .  T
C913        C914   1.391       .  A
C913        C918   1.419       .  A
C914        C915   1.380       .  A
C914        H919   1.065       .  S
C915        C916   1.397       .  A
C915        C922   1.416       .  S
C916        C917   1.415       .  A
C917        C918   1.426       .  A
C917        H920   1.084       .  S
C918        C921   1.440       .  S
C921        N923   1.157       .  T
C922        N924   1.146   1_565  T
C925        C926   1.415       .  A
C925        C930   1.414       .  A
C926        C927   1.411       .  A
C926        H931   1.084       .  S
C927        C928   1.406       .  A
C927        C934   1.441       .  S
C928        C929   1.389       .  A
C929        C930   1.390       .  A
C929        H932   1.069       .  S
C930        C933   1.447       .  S
C933        N935   1.158       .  T
C934        N936   1.157       .  T
C937        C938   1.412       .  A
C937        C942   1.426       .  A
C938        C939   1.414       .  A
C938        H943   1.084       .  S
C939        C940   1.411       .  A
C939        C946   1.442       .  S
C940        C941   1.392       .  A
C941        C942   1.391       .  A
C941        H944   1.082       .  S
C942        C945   1.438       .  S
C945        N947   1.157       .  T
C946        N948   1.157       .  T
C949        C950   1.395       .  A
C949        C954   1.420       .  A
C950        C951   1.393       .  A
C950        H955   1.078       .  S
C951        C952   1.417       .  A
C951        C958   1.444       .  S
C952        C953   1.407       .  A
C953        C954   1.410       .  A
C953        H956   1.084       .  S
C954        C957   1.446       .  S
C957        N959   1.157       .  T
C958        N960   1.159       .  T
C961        C962   1.399       .  A
C961        C966   1.406       .  A
C962        C963   1.405       .  A
C962        H967   1.084       .  S
C963        C964   1.416       .  A
C963        C970   1.440       .  S
C964        C965   1.415       .  A
C965        C966   1.403       .  A
C965        H968   1.064       .  S
C966        C969   1.442       .  S
C969        N971   1.157   1_545  T
C970        N972   1.157       .  T
C973        C974   1.402       .  A
C973        C978   1.416       .  A
C974        C975   1.395       .  A
C974        H979   1.085       .  S
C975        C976   1.412       .  A
C975        C982   1.444       .  S
C976        C977   1.395       .  A
C977        C978   1.381       .  A
C977        H980   1.084       .  S
C978        C981   1.443       .  S
C981        N983   1.157       .  T
C982        N984   1.157       .  T
C985        C986   1.418       .  A
C985        C990   1.413       .  A
C986        C987   1.425       .  A
C986        H991   1.084       .  S
C987        C988   1.418       .  A
C987        C994   1.441       .  S
C988        C989   1.402       .  A
C989        C990   1.394       .  A
C989        H992   1.078       .  S
C990        C993   1.430       .  S
C993        N995   1.155       .  T
C994        N996   1.157       .  T
C997        C998   1.415       .  A
C997       C1002   1.411       .  A
C998        C999   1.419   1_545  A
C998       H1003   1.084       .  S
C999       C1000   1.412       .  A
C999       C1006   1.439       .  S
C1000      C1001   1.399       .  A
C1001      C1002   1.394   1_565  A
C1001      H1004   1.083       .  S
C1002      C1005   1.444       .  S
C1005      N1007   1.157       .  T
C1006      N1008   1.157       .  T
C1009      C1010   1.408       .  A
C1009      C1014   1.414       .  A
C1010      C1011   1.404       .  A
C1010      H1015   1.074       .  S
C1011      C1012   1.409       .  A
C1011      C1018   1.443       .  S
C1012      C1013   1.404       .  A
C1013      C1014   1.409       .  A
C1013      H1016   1.085       .  S
C1014      C1017   1.440       .  S
C1017      N1019   1.158       .  T
C1018      N1020   1.157       .  T
C1021      C1022   1.399       .  A
C1021      C1026   1.415       .  A
C1022      C1023   1.392       .  A
C1022      H1027   1.073       .  S
C1023      C1024   1.412       .  A
C1023      C1030   1.435       .  S
C1024      C1025   1.411       .  A
C1025      C1026   1.407       .  A
C1025      H1028   1.084       .  S
C1026      C1029   1.446       .  S
C1029      N1031   1.157       .  T
C1030      N1032   1.154       .  T
C1033      C1034   1.416       .  A
C1033      C1038   1.417       .  A
C1034      C1035   1.420       .  A
C1034      H1039   1.080       .  S
C1035      C1036   1.415       .  A
C1035      C1042   1.442       .  S
C1036      C1037   1.401       .  A
C1037      C1038   1.411       .  A
C1037      H1040   1.084       .  S
C1038      C1041   1.440       .  S
C1041      N1043   1.157       .  T
C1042      N1044   1.158       .  T
C1045      C1046   1.409       .  A
C1045      C1050   1.421       .  A
C1046      C1047   1.404       .  A
C1046      H1051   1.084       .  S
C1047      C1048   1.412       .  A
C1047      C1054   1.444       .  S
C1048      C1049   1.405       .  A
C1049      C1050   1.402       .  A
C1049      H1052   1.083       .  S
C1050      C1053   1.445       .  S
C1053      N1055   1.157       .  T
C1054      N1056   1.157       .  T
C1057      C1058   1.403       .  A
C1057      C1062   1.424       .  A
C1058      C1059   1.396   1_455  A
C1058      H1063   1.079       .  S
C1059      C1060   1.389       .  A
C1059      C1066   1.445       .  S
C1060      C1061   1.431       .  A
C1061      C1062   1.426   1_655  A
C1061      H1064   1.057       .  S
C1062      C1065   1.440       .  S
C1065      N1067   1.158       .  T
C1066      N1068   1.156       .  T
C1069      C1070   1.410       .  A
C1069      C1074   1.412       .  A
C1070      C1071   1.422       .  A
C1070      H1075   1.083       .  S
C1071      C1072   1.419       .  A
C1071      C1078   1.441       .  S
C1072      C1073   1.392       .  A
C1073      C1074   1.386       .  A
C1073      H1076   1.069       .  S
C1074      C1077   1.437       .  S
C1077      N1079   1.154       .  T
C1078      N1080   1.157       .  T
C1081      C1082   1.378       .  A
C1081      C1086   1.411       .  A
C1082      C1083   1.365       .  A
C1082      H1087   1.076       .  S
C1083      C1084   1.415       .  A
C1083      C1090   1.432       .  S
C1084      C1085   1.409       .  A
C1085      C1086   1.413       .  A
C1085      H1088   1.084       .  S
C1086      C1089   1.441       .  S
C1089      N1091   1.157       .  T
C1090      N1092   1.151       .  T
C1093      C1094   1.402       .  A
C1093      C1098   1.390       .  A
C1094      C1095   1.503       .  A
C1094      H1099   1.079       .  S
C1095      C1096   1.566       .  A
C1095      C1102   2.775       .  S
C1096      C1097   1.409       .  A
C1097      C1098   1.387       .  A
C1097      H1100   1.079       .  S
C1098      C1101   1.444       .  S
C1101      N1103   1.157       .  T
C1102      N1104   1.161       .  T
C1105      C1106   1.827       .  A
C1105      C1110   1.820       .  A
C1106      C1107   1.808       .  A
C1106      H1111   1.072       .  S
C1107      C1108   1.852       .  A
C1107      C1114   1.427       .  S
C1108      C1109   1.845       .  A
C1109      C1110   1.818       .  A
C1109      H1112   1.081       .  S
C1110      C1113   1.436       .  S
C1113      N1115   1.157       .  T
C1114      N1116   1.154       .  T
C1117      C1118   1.417       .  A
C1117      C1122   1.400       .  A
C1118      C1119   1.420   1_545  A
C1118      H1123   1.076       .  S
C1119      C1120   1.412       .  A
C1119      C1126   1.441       .  S
C1120      C1121   1.394       .  A
C1121      C1122   1.392   1_565  A
C1121      H1124   1.052       .  S
C1122      C1125   1.444       .  S
C1125      N1127   1.157       .  T
C1126      N1128   1.157       .  T
C1129      C1130   1.418       .  A
C1129      C1134   1.419       .  A
C1130      C1131   1.422   1_455  A
C1130      H1135   1.083       .  S
C1131      C1132   1.409       .  A
C1131      C1138   1.439       .  S
C1132      C1133   1.380       .  A
C1133      C1134   1.375   1_655  A
C1133      H1136   1.084       .  S
C1134      C1137   1.433       .  S
C1137      N1139   1.156       .  T
C1138      N1140   1.157       .  T
