geometry optimzed in LAMMPS
_audit_creation_date              2020-11-30 
_audit_creation_method            'lammps2cif' 
_symmetry_space_group_name_H-M    'P1' 
_symmetry_Int_Tables_number       1 
_symmetry_cell_setting            triclinic 
loop_ 
_symmetry_equiv_pos_as_xyz 
  x,y,z 
_cell_length_a                    51.57218422 
_cell_length_b                    51.93709101706166 
_cell_length_c                    48.45774258675079 
_cell_angle_alpha                 88.558882191856 
_cell_angle_beta                  89.3703847267678 
_cell_angle_gamma                 119.77753597111337 
loop_ 
_atom_site_label 
_atom_site_type_symbol 
_atom_site_fract_x 
_atom_site_fract_y 
_atom_site_fract_z 
_atom_site_charge 
C1          C  0.03042483  0.12597309  0.50978571     0.80100
N2          N  0.05138755  0.14480087  0.49100269    -0.78200
C3          C  0.05959978  0.13463703  0.46900421     0.82500
N4          N  0.04650080  0.10486535  0.46582082    -0.78200
C5          C  0.02542334  0.08545797  0.48452960     0.82600
N6          N  0.01727287  0.09614966  0.50643674    -0.79900
C7          C  0.46799861  0.36685122  0.80915265     0.80100
N8          N  0.45244148  0.38153242  0.80568976    -0.78200
C9          C  0.45496309  0.40200824  0.82405169     0.82500
N10         N  0.47335878  0.40791190  0.84567669    -0.78200
C11         C  0.48908803  0.39352839  0.84923486     0.82600
N12         N  0.48635788  0.37307432  0.83089026    -0.79900
C13         C  0.41772928  0.35713635  0.49079871     0.80100
N14         N  0.43504225  0.38636383  0.49659297    -0.78200
C15         C  0.43633355  0.40790369  0.47906523     0.82500
N16         N  0.41978751  0.39999501  0.45597729    -0.78200
C17         C  0.40227504  0.37099033  0.45011467     0.82600
N18         N  0.40143460  0.34975046  0.46756560    -0.79900
O19         O  0.38379561  0.16689251  0.67129292    -0.58000
C20         C  0.42503256  0.25020597  0.60838472     0.74700
O21         O  0.45658352  0.24774007  0.68336775    -0.59100
C22         C  0.40057777  0.16154264  0.68681198     0.74700
C23         C  0.45120278  0.18364257  0.61427009     0.77000
Cd24       Cd  0.42720528  0.21080509  0.64884896     1.37500
O25         O  0.40156524  0.22514499  0.61352919    -0.57900
O26         O  0.42352501  0.17537810  0.61560962    -0.56800
C27         C  0.43415418  0.24998551  0.69150684     0.77000
O28         O  0.46853955  0.20556642  0.62873746    -0.59100
O29         O  0.44844956  0.25549991  0.62112973    -0.57600
O30         O  0.42858110  0.17902069  0.68432351    -0.57600
O31         O  0.40950073  0.23404216  0.67986375    -0.56700
C32         C  0.09016090  0.11678405  0.10554548     0.80100
N33         N  0.05983266  0.10345885  0.10594432    -0.78200
C34         C  0.04509534  0.10960293  0.12575302     0.82500
N35         N  0.06091706  0.12903609  0.14537652    -0.78200
C36         C  0.09120846  0.14264792  0.14516562     0.82600
N37         N  0.10572461  0.13635664  0.12522298    -0.79900
C38         C  0.32067325  0.50308906  0.14502771     0.80100
N39         N  0.35214383  0.01976650  0.14052062    -0.78200
C40         C  0.37036220  0.01787649  0.15939846     0.82500
N41         N  0.35671209  0.49914565  0.18338156    -0.78200
C42         C  0.32698819  0.47906804  0.18443428     0.82600
N43         N  0.30898755  0.48113450  0.16512948    -0.79900
O44         O  0.18225288  0.26069678  0.34570221    -0.58000
C45         C  0.24167459  0.33212972  0.28082678     0.74700
O46         O  0.26756178  0.27435901  0.32398728    -0.59100
C47         C  0.17983565  0.23530222  0.35026828     0.74700
C48         C  0.19825676  0.24194178  0.26236131     0.77000
Cd49       Cd  0.22290493  0.27618330  0.30944655     1.37500
O50         O  0.21734743  0.31975999  0.29511483    -0.57900
O51         O  0.18605381  0.25409816  0.27543574    -0.56800
C52         C  0.27470781  0.29484688  0.34111160     0.77000
O53         O  0.22316297  0.24592115  0.27096827    -0.59100
O54         O  0.25673434  0.31892421  0.28057727    -0.57600
O55         O  0.19712471  0.22966017  0.33621552    -0.57600
O56         O  0.25781348  0.30599325  0.34321650    -0.56700
C57         C  0.34119564  0.01432251  0.84301266     0.80100
N58         N  0.34890955  0.03381871  0.82112387    -0.78200
C59         C  0.37096555  0.03782250  0.80296389     0.82500
N60         N  0.38525054  0.02199498  0.80678183    -0.78200
C61         C  0.37413054  0.49931110  0.82798177     0.82600
N62         N  0.35208054  0.49596187  0.84581314    -0.79900
O63         O  0.12702544  0.45559283  0.97119542    -0.58000
C64         C  0.20459650  0.49174088  0.03113503     0.74700
O65         O  0.21223475  0.03257250  0.95138880    -0.59100
C66         C  0.12071902  0.47136571  0.95504850     0.74700
C67         C  0.15031727  0.03063511  0.01589162     0.77000
Cd68       Cd  0.17285380  0.50059325  0.98715724     1.37500
O69         O  0.18065661  0.46989742  0.02264646    -0.57900
O70         O  0.14030772  0.00294286  0.01882412    -0.56800
C71         C  0.21603331  0.01169588  0.94280387     0.77000
O72         O  0.17292722  0.04528271  0.99972403    -0.59100
O73         O  0.21348118  0.01551260  0.01813176    -0.57600
O74         O  0.13879121  0.49903922  0.95393726    -0.57600
O75         O  0.19906087  0.48686576  0.95491178    -0.56700
C76         C  0.23883114  0.01657215  0.92150217    -0.05400
C77         C  0.25324843  0.04296671  0.90526218    -0.05300
C78         C  0.27562522  0.04752945  0.88591005    -0.23500
C79         C  0.28424345  0.02597545  0.88291574     0.18800
C80         C  0.26978264  0.99940224  0.89923431     0.16000
C81         C  0.24697736  0.99472909  0.91805393    -0.18500
C82         C  0.27872867  0.97810976  0.89691163    -0.20300
C83         C  0.30208737  0.98318285  0.87878198    -0.12900
C84         C  0.31660172  0.00940562  0.86227846     0.03800
C85         C  0.30734987  0.03066351  0.86426734    -0.25000
H86         H  0.24725937  0.06006407  0.90756946     0.08900
H87         H  0.28648738  0.06806540  0.87360892     0.12500
H88         H  0.23613889  0.97434130  0.93061102     0.12400
H89         H  0.26786696  0.95765126  0.90933612     0.12200
H90         H  0.30860653  0.96637157  0.87750266     0.12700
H91         H  0.31848111  0.05105530  0.85175531     0.14700
C92         C  0.25227030  0.36024077  0.26460212    -0.05400
C93         C  0.23207641  0.36658776  0.25104045    -0.05300
C94         C  0.24251656  0.39144636  0.23295965    -0.23500
C95         C  0.27333878  0.41063672  0.22854760     0.18800
C96         C  0.29374804  0.40501970  0.24305559     0.16000
C97         C  0.28311714  0.37975975  0.26069681    -0.18500
C98         C  0.32449051  0.42444069  0.23930552    -0.20300
C99         C  0.33502107  0.44879499  0.22081777    -0.12900
C100        C  0.31508394  0.45415856  0.20539201     0.03800
C101        C  0.28411940  0.43504090  0.20963534    -0.25000
H102        H  0.20823247  0.35167059  0.25358390     0.08900
H103        H  0.22649752  0.39541872  0.22214130     0.12500
H104        H  0.29885685  0.37506873  0.27118843     0.12400
H105        H  0.34044051  0.42060813  0.25044210     0.12200
H106        H  0.35895680  0.46306236  0.21817410     0.12700
H107        H  0.26844033  0.43896967  0.19813201     0.14700
C108        C  0.22218393  0.48870412  0.05367268    -0.05400
C109        C  0.21070277  0.46255567  0.07019772    -0.05300
C110        C  0.22728029  0.46028773  0.09189239    -0.23500
C111        C  0.25576160  0.48404145  0.09726058     0.18800
C112        C  0.26757641  0.51031341  0.08053821     0.16000
C113        C  0.25073919  0.51250735  0.05901100    -0.18500
C114        C  0.29610419  0.53397162  0.08552806    -0.20300
C115        C  0.31297502  0.53156608  0.10669192    -0.12900
C116        C  0.30165467  0.50552923  0.12349620     0.03800
C117        C  0.27276075  0.48189045  0.11881221    -0.25000
H118        H  0.18876335  0.44395480  0.06652684     0.08900
H119        H  0.21784876  0.43993702  0.10442687     0.12500
H120        H  0.25998075  0.53277570  0.04632190     0.12400
H121        H  0.30549010  0.55428724  0.07291851     0.12200
H122        H  0.33503520  0.55021767  0.10983791     0.12700
H123        H  0.26376482  0.46164417  0.13147606     0.14700
C124        C  0.40283301  0.03836316  0.15742306    -0.05400
C125        C  0.41919546  0.04975721  0.18136151    -0.05300
C126        C  0.45028176  0.06757719  0.17969375    -0.23500
C127        C  0.46550159  0.07342441  0.15410493     0.18800
C128        C  0.44915743  0.06201380  0.12989415     0.16000
C129        C  0.41785811  0.04514650  0.13163139    -0.18500
C130        C  0.46443337  0.06679178  0.10449033    -0.20300
C131        C  0.49565452  0.08227561  0.10315598    -0.12900
C132        C  0.01209777  0.09390775  0.12704604     0.03800
C133        C  0.49681965  0.08972231  0.15245316    -0.25000
H134        H  0.40619681  0.55102917  0.20427107     0.08900
H135        H  0.46088363  0.58149163  0.20083311     0.12500
H136        H  0.40530859  0.03608698  0.11315874     0.12400
H137        H  0.45227173  0.05806094  0.08578616     0.12200
H138        H  0.00696891  0.08527903  0.08336674     0.12700
H139        H  0.50927206  0.09823730  0.17106621     0.14700
C140        C  0.10788293  0.16247739  0.16760190    -0.05400
C141        C  0.09286418  0.17067165  0.18678125    -0.05300
C142        C  0.10791375  0.18814721  0.20883624    -0.23500
C143        C  0.13820604  0.19759067  0.21222845     0.18800
C144        C  0.15368698  0.18963181  0.19314046     0.16000
C145        C  0.13847604  0.17230942  0.17077549    -0.18500
C146        C  0.18397040  0.19882598  0.19702477    -0.20300
C147        C  0.19870020  0.21569558  0.21971259    -0.12900
C148        C  0.18338868  0.22383822  0.23853324     0.03800
C149        C  0.15315479  0.21471340  0.23459149    -0.25000
H150        H  0.06934647  0.16344160  0.18488030     0.08900
H151        H  0.09577625  0.19405378  0.22338658     0.12500
H152        H  0.15031146  0.16602078  0.15625362     0.12400
H153        H  0.19617894  0.19286523  0.18262918     0.12200
H154        H  0.22205029  0.22259485  0.22240076     0.12700
H155        H  0.14105343  0.22067717  0.24914780     0.14700
C156        C  0.13523547  0.04434414  0.03025752    -0.05400
C157        C  0.10452657  0.02694684  0.03649392    -0.05300
C158        C  0.08940917  0.03864890  0.05071477    -0.23500
C159        C  0.10493339  0.06781571  0.05954395     0.18800
C160        C  0.13589181  0.08567073  0.05346661     0.16000
C161        C  0.15084497  0.07397442  0.03829659    -0.18500
C162        C  0.15138532  0.11450726  0.06342320    -0.20300
C163        C  0.13644645  0.12508283  0.07990112    -0.12900
C164        C  0.10569487  0.10728327  0.08604073     0.03800
C165        C  0.09000477  0.07890837  0.07522120    -0.25000
H166        H  0.09206703  0.00412052  0.03023376     0.08900
H167        H  0.06576142  0.02471463  0.05529678     0.12500
H168        H  0.17456231  0.08738358  0.03367620     0.12400
H169        H  0.17508187  0.12849872  0.05911377     0.12200
H170        H  0.14900900  0.14707349  0.08809246     0.12700
H171        H  0.06643508  0.06481375  0.08012401     0.14700
C172        C  0.38884999  0.13627382  0.70706277    -0.05400
C173        C  0.35946527  0.12287170  0.71784523    -0.05300
C174        C  0.34971311  0.10041054  0.73854117    -0.23500
C175        C  0.36914863  0.09083661  0.74846675     0.18800
C176        C  0.39837901  0.10354265  0.73695450     0.16000
C177        C  0.40805197  0.12622278  0.71656917    -0.18500
C178        C  0.41770222  0.09367701  0.74623034    -0.20300
C179        C  0.40841327  0.07180689  0.76721843    -0.12900
C180        C  0.37978611  0.05966078  0.77957764     0.03800
C181        C  0.36007846  0.06909543  0.76989176    -0.25000
H182        H  0.34431694  0.13030396  0.71080899     0.08900
H183        H  0.32716654  0.09078955  0.74696998     0.12500
H184        H  0.43066967  0.13617961  0.70817993     0.12400
H185        H  0.44010169  0.10308663  0.73745477     0.12200
H186        H  0.42399319  0.06494301  0.77426196     0.12700
H187        H  0.33781961  0.05962873  0.77902170     0.14700
C188        C  0.38217728  0.36246676  0.42643089    -0.05400
C189        C  0.37392894  0.38247288  0.41513115    -0.05300
C190        C  0.35216389  0.37345819  0.39512092    -0.23500
C191        C  0.33849591  0.34440006  0.38586201     0.18800
C192        C  0.34766163  0.32450025  0.39600480     0.16000
C193        C  0.36937118  0.33363784  0.41631593    -0.18500
C194        C  0.33430426  0.29558407  0.38620395    -0.20300
C195        C  0.31131886  0.28615776  0.36727432    -0.12900
C196        C  0.30117254  0.30541490  0.35826085     0.03800
C197        C  0.31522223  0.33466037  0.36722883    -0.25000
H198        H  0.38342948  0.40476665  0.42253897     0.08900
H199        H  0.34551672  0.38905077  0.38734560     0.12500
H200        H  0.37580570  0.31809316  0.42468041     0.12400
H201        H  0.34120000  0.28007769  0.39362147     0.12200
H202        H  0.30067243  0.26351536  0.36054697     0.12700
H203        H  0.30763884  0.34972977  0.36003493     0.14700
C204        C  0.42581082  0.27303425  0.58901469    -0.05400
C205        C  0.44667342  0.30301187  0.59307999    -0.05300
C206        C  0.44899429  0.32529168  0.57486121    -0.23500
C207        C  0.43077629  0.31802690  0.55189390     0.18800
C208        C  0.40973606  0.28795040  0.54741468     0.16000
C209        C  0.40706238  0.26557739  0.56624663    -0.18500
C210        C  0.39200241  0.28084736  0.52404219    -0.20300
C211        C  0.39492136  0.30328941  0.50550768    -0.12900
C212        C  0.41546736  0.33334516  0.51004854     0.03800
C213        C  0.43341563  0.34044419  0.53334225    -0.25000
H214        H  0.46124632  0.30930367  0.61057601     0.08900
H215        H  0.46521646  0.34817631  0.57862615     0.12500
H216        H  0.39108765  0.24251288  0.56284404     0.12400
H217        H  0.37589598  0.25797734  0.52008929     0.12200
H218        H  0.38078355  0.29702846  0.48771433     0.12700
H219        H  0.44947655  0.36338763  0.53709204     0.14700
C220        C  0.43931486  0.41911824  0.81996709    -0.05400
C221        C  0.43712589  0.42922357  0.79342416    -0.05300
C222        C  0.42468249  0.44762439  0.78978248    -0.23500
C223        C  0.41354609  0.45562743  0.81259354     0.18800
C224        C  0.41475757  0.44474927  0.83930068     0.16000
C225        C  0.42802441  0.42694462  0.84286002    -0.18500
C226        C  0.40267714  0.45186938  0.86198650    -0.20300
C227        C  0.38945852  0.46954873  0.85824452    -0.12900
C228        C  0.38862785  0.48098430  0.83186002     0.03800
C229        C  0.40098697  0.47408880  0.80910794    -0.25000
H230        H  0.44591902  0.42364480  0.77555512     0.08900
H231        H  0.42380488  0.45561211  0.76915961     0.12500
H232        H  0.42946082  0.41905535  0.86338774     0.12400
H233        H  0.41565683  0.95431192  0.88267510     0.12200
H234        H  0.39199956  0.98493908  0.87682020     0.12700
H235        H  0.40016446  0.48245387  0.78863189     0.14700
C236        C  0.43603502  0.27020154  0.71337151    -0.05400
C237        C  0.41128092  0.27388753  0.71903776    -0.05300
C238        C  0.41248061  0.29319969  0.73911003    -0.23500
C239        C  0.43848279  0.30918067  0.75406033     0.18800
C240        C  0.46333761  0.30521920  0.74907079     0.16000
C241        C  0.46206178  0.28587378  0.72862340    -0.18500
C242        C  0.48909798  0.32081889  0.76453120    -0.20300
C243        C  0.49032359  0.34044224  0.78439672    -0.12900
C244        C  0.46603474  0.34515603  0.78889825     0.03800
C245        C  0.44004579  0.32924710  0.77374715    -0.25000
H246        H  0.39087216  0.26199798  0.70768618     0.08900
H247        H  0.39319183  0.29576520  0.74279521     0.12500
H248        H  0.98115625  0.28306561  0.72461052     0.12400
H249        H  0.00828055  0.31800616  0.76115278     0.12200
H250        H  0.01063317  0.35247966  0.79584527     0.08500
H251        H  0.42108240  0.33239300  0.77733633     0.14700
C252        C  0.09389676  0.45917926  0.93795304    -0.05400
C253        C  0.08486316  0.47881204  0.92721923    -0.05300
C254        C  0.06150686  0.46925737  0.90895999    -0.23500
C255        C  0.04681070  0.43985333  0.90079052     0.18800
C256        C  0.05507575  0.41953759  0.91180104     0.16000
C257        C  0.07838188  0.42922907  0.93075231    -0.18500
C258        C  0.04054871  0.39025027  0.90286064    -0.20300
C259        C  0.01878807  0.38156413  0.88266771    -0.12900
C260        C  0.01073290  0.40181230  0.87160609     0.03800
C261        C  0.02453921  0.43079829  0.88114026    -0.25000
H262        H  0.09603424  0.00214348  0.93268245     0.08900
H263        H  0.05542285  0.48504802  0.90074437     0.12500
H264        H  0.08522646  0.41396893  0.93885799     0.12400
H265        H  0.04646778  0.37430368  0.91099279     0.12200
H266        H  0.50828503  0.35903121  0.87565639     0.12700
H267        H  0.01878082  0.44668516  0.87249873     0.14700
C268        C  0.01016354  0.05309990  0.47982635    -0.05400
C269        C  0.00677825  0.04319882  0.45267935    -0.05300
C270        C  0.49188336  0.01293071  0.44752294    -0.23500
C271        C  0.48211028  0.49151561  0.46867231     0.18800
C272        C  0.98439584  0.00134953  0.49693695     0.16000
C273        C  0.99876525  0.03196510  0.50197575    -0.18500
C274        C  0.97353590  0.47965543  0.51794793    -0.20300
C275        C  0.95863420  0.44927362  0.51253743    -0.12900
C276        C  0.45451046  0.43976645  0.48522852     0.03800
C277        C  0.46659144  0.46110418  0.46342136    -0.25000
H278        H  0.51517891  0.05893861  0.43527760     0.08900
H279        H  0.48924115  0.00601892  0.42634575     0.12500
H280        H  0.00145890  0.03932427  0.52300498     0.12400
H281        H  0.97579462  0.48641456  0.53914809     0.12200
H282        H  0.94946641  0.43321928  0.52967612     0.12700
H283        H  0.46385797  0.45401323  0.44228619     0.14700
C284        C  0.15819654  0.21300400  0.37081763    -0.05400
C285        C  0.15477246  0.18435305  0.37283439    -0.05300
C286        C  0.13470298  0.16307096  0.39215453    -0.23500
C287        C  0.11770714  0.17001862  0.41006118     0.18800
C288        C  0.12112301  0.19879751  0.40834501     0.16000
C289        C  0.14113426  0.21999767  0.38868108    -0.18500
C290        C  0.10456335  0.20601856  0.42643786    -0.20300
C291        C  0.08491164  0.18509669  0.44607578    -0.12900
C292        C  0.08100614  0.15628661  0.44795354     0.03800
C293        C  0.09746785  0.14881002  0.42969438    -0.25000
H294        H  0.16763038  0.17828887  0.35935249     0.08900
H295        H  0.13256187  0.14124419  0.39313278     0.12500
H296        H  0.14361118  0.24196900  0.38747300     0.12400
H297        H  0.10685138  0.22791013  0.42546623     0.12200
H298        H  0.07241517  0.19148751  0.45965896     0.12700
H299        H  0.09483200  0.12677575  0.43097986     0.14700
C300        C  0.02097157  0.13868287  0.53223077    -0.05400
C301        C  0.04082258  0.16756315  0.54070737    -0.05300
C302        C  0.03156969  0.18157220  0.55942687    -0.23500
C303        C  0.00207609  0.16722572  0.56976482     0.18800
C304        C  0.98191649  0.13804725  0.56166904     0.16000
C305        C  0.99162003  0.12375178  0.54332039    -0.18500
C306        C  0.45217159  0.12409652  0.57137979    -0.20300
C307        C  0.44238190  0.13903243  0.58847658    -0.12900
C308        C  0.46224944  0.16801567  0.59666702     0.03800
C309        C  0.99223548  0.18184556  0.58750606    -0.25000
H310        H  0.06355181  0.17958429  0.53249167     0.08900
H311        H  0.04733633  0.20395219  0.56530088     0.12500
H312        H  0.47596690  0.10164843  0.53665399     0.12400
H313        H  0.43631623  0.10178867  0.56538099     0.12200
H314        H  0.41918559  0.12783051  0.59539209     0.12700
H315        H  0.00769153  0.20427695  0.59352887     0.14700
C316        C  0.03057913  0.62579371  0.50801163     0.80100
N317        N  0.05137509  0.64462453  0.48909852    -0.78200
C318        C  0.05989862  0.63439424  0.46734707     0.82500
N319        N  0.04732051  0.60461424  0.46459847    -0.78200
C320        C  0.02638834  0.58521357  0.48340132     0.82600
N321        N  0.01789504  0.59594052  0.50504663    -0.79900
C322        C  0.46909568  0.86810925  0.80736126     0.80100
N323        N  0.45316735  0.88245020  0.80408181    -0.78200
C324        C  0.45566317  0.90291538  0.82248580     0.82500
N325        N  0.47429636  0.90901689  0.84394387    -0.78200
C326        C  0.49022440  0.89486725  0.84737352     0.82600
N327        N  0.48758451  0.87450788  0.82899695    -0.79900
C328        C  0.41827348  0.85751726  0.49192341     0.80100
N329        N  0.43554488  0.88679689  0.49757134    -0.78200
C330        C  0.43642959  0.90819049  0.48008460     0.82500
N331        N  0.41954699  0.90008398  0.45722767    -0.78200
C332        C  0.40210966  0.87105127  0.45151151     0.82600
N333        N  0.40165546  0.84995420  0.46888830    -0.79900
O334        O  0.38485151  0.66587606  0.67024122    -0.58000
C335        C  0.42608235  0.75050312  0.60922101     0.74700
O336        O  0.45819265  0.74719035  0.68359151    -0.59100
C337        C  0.40124443  0.66006319  0.68584797     0.74700
C338        C  0.45270414  0.68387595  0.61365236     0.77000
Cd339      Cd  0.42866968  0.71042137  0.64889234     1.37500
O340        O  0.40267034  0.72541782  0.61440332    -0.57900
O341        O  0.42516288  0.67617895  0.61466137    -0.56800
C342        C  0.43561145  0.74902605  0.69201765     0.77000
O343        O  0.47007104  0.70515714  0.62874588    -0.59100
O344        O  0.44966169  0.75559016  0.62155067    -0.57600
O345        O  0.42928220  0.67752453  0.68386476    -0.57600
O346        O  0.41087585  0.73270303  0.68067477    -0.56700
C347        C  0.08777196  0.61472983  0.10815749     0.80100
N348        N  0.05747321  0.60136187  0.10910049    -0.78200
C349        C  0.04312351  0.60796776  0.12893126     0.82500
N350        N  0.05934971  0.62797234  0.14805467    -0.78200
C351        C  0.08965122  0.64153220  0.14728713     0.82600
N352        N  0.10371499  0.63475378  0.12733355    -0.79900
C353        C  0.32230840  0.00010087  0.14142085     0.80100
N354        N  0.35053079  0.52257624  0.14414869    -0.78200
C355        C  0.36854092  0.52084659  0.16333824     0.82500
N356        N  0.35872150  0.99583319  0.17915445    -0.78200
C357        C  0.32902609  0.97563536  0.18021386     0.82600
N358        N  0.31084987  0.97789011  0.16125779    -0.79900
O359        O  0.18420342  0.76018213  0.34529184    -0.58000
C360        C  0.24328087  0.83133245  0.27972884     0.74700
O361        O  0.26903676  0.77422217  0.32424128    -0.59100
C362        C  0.18147755  0.73459951  0.34945159     0.74700
C363        C  0.19935312  0.74211138  0.26207832     0.77000
Cd364      Cd  0.22453559  0.77589750  0.30904065     1.37500
O365        O  0.21941565  0.81975264  0.29469450    -0.57900
O366        O  0.18732076  0.75417075  0.27557799    -0.56800
C367        C  0.27599184  0.79490400  0.34111791     0.77000
O368        O  0.22434496  0.74592353  0.27030720    -0.59100
O369        O  0.25777247  0.81754492  0.27917408    -0.57600
O370        O  0.19856191  0.72886356  0.33515943    -0.57600
O371        O  0.25917196  0.80618499  0.34262379    -0.56700
C372        C  0.33805631  0.51206230  0.84214954     0.80100
N373        N  0.34640116  0.53182909  0.82039531    -0.78200
C374        C  0.36852677  0.53553810  0.80242562     0.82500
N375        N  0.38227233  0.51917939  0.80632899    -0.78200
C376        C  0.37779785  0.00250656  0.82863693     0.82600
N377        N  0.35582208  0.99882324  0.84670673    -0.79900
O378        O  0.12767018  0.95542881  0.96941404    -0.58000
C379        C  0.20457210  0.99048660  0.03019257     0.74700
O380        O  0.21152058  0.53329313  0.95214705    -0.59100
C381        C  0.12104107  0.97150364  0.95404373     0.74700
C382        C  0.14805132  0.52994814  0.01683592     0.77000
Cd383      Cd  0.17346954  0.00001385  0.98604788     1.37500
O384        O  0.18033838  0.96887625  0.02188522    -0.57900
O385        O  0.13819200  0.50225143  0.01927122    -0.56800
C386        C  0.21527774  0.51236183  0.94361193     0.77000
O387        O  0.17107903  0.54507690  0.00125150    -0.59100
O388        O  0.21299905  0.51680201  0.01934181    -0.57600
O389        O  0.13883115  0.99921772  0.95368709    -0.57600
O390        O  0.19969651  0.98611303  0.95388695    -0.56700
C391        C  0.23781865  0.51695260  0.92208013    -0.05400
C392        C  0.25158202  0.54275139  0.90497222    -0.05300
C393        C  0.27336270  0.54669308  0.88512588    -0.23500
C394        C  0.28203383  0.52511326  0.88247444     0.18800
C395        C  0.26827105  0.49920686  0.89973280     0.16000
C396        C  0.24612014  0.49516984  0.91907250    -0.18500
C397        C  0.27717805  0.47786511  0.89776230    -0.20300
C398        C  0.29982907  0.48221315  0.87906063    -0.12900
C399        C  0.31376729  0.50778605  0.86163703     0.03800
C400        C  0.30449927  0.52909980  0.86326135    -0.25000
H401        H  0.24546169  0.55979850  0.90690718     0.08900
H402        H  0.28367294  0.56673576  0.87212087     0.12500
H403        H  0.23582223  0.47525408  0.93229326     0.12400
H404        H  0.26683634  0.45791466  0.91091122     0.12200
H405        H  0.30633185  0.46536820  0.87816882     0.12700
H406        H  0.31514713  0.54900384  0.85006274     0.14700
C407        C  0.25411252  0.85925163  0.26312850    -0.05400
C408        C  0.23413191  0.86680339  0.25087676    -0.05300
C409        C  0.24469048  0.89135536  0.23237365    -0.23500
C410        C  0.27543627  0.90898887  0.22621157     0.18800
C411        C  0.29570216  0.90218065  0.23941590     0.16000
C412        C  0.28492008  0.87730104  0.25752122    -0.18500
C413        C  0.32643017  0.92003544  0.23394465    -0.20300
C414        C  0.33705226  0.94410847  0.21512568    -0.12900
C415        C  0.31718394  0.95070670  0.20109499     0.03800
C416        C  0.28627578  0.93305494  0.20691181    -0.25000
H417        H  0.21029518  0.85304860  0.25476788     0.08900
H418        H  0.22879321  0.89629108  0.22259496     0.12500
H419        H  0.30051838  0.87172117  0.26702511     0.12400
H420        H  0.34227024  0.91522958  0.24404548     0.12200
H421        H  0.36093352  0.95722395  0.21116715     0.12700
H422        H  0.27069477  0.93799458  0.19647307     0.14700
C423        C  0.22206355  0.98727268  0.05272091    -0.05400
C424        C  0.21030773  0.96135388  0.06961220    -0.05300
C425        C  0.22712411  0.95887712  0.09099157    -0.23500
C426        C  0.25612304  0.98215861  0.09561545     0.18800
C427        C  0.26808434  0.00825254  0.07863604     0.16000
C428        C  0.25099548  0.01069674  0.05751187    -0.18500
C429        C  0.29708770  0.03144390  0.08284041    -0.20300
C430        C  0.31435103  0.02870996  0.10340513    -0.12900
C431        C  0.30295427  0.00282327  0.12041989     0.03800
C432        C  0.27353601  0.97968748  0.11659389    -0.25000
H433        H  0.18804309  0.94307298  0.06640117     0.08900
H434        H  0.21753416  0.93868824  0.10377063     0.12500
H435        H  0.26042264  0.03080060  0.04458230     0.12400
H436        H  0.30656666  0.05161872  0.07002491     0.12200
H437        H  0.33678153  0.04699459  0.10589817     0.12700
H438        H  0.26442469  0.95957565  0.12946719     0.14700
C439        C  0.40103952  0.54066553  0.16103148    -0.05400
C440        C  0.41748861  0.55403431  0.18445574    -0.05300
C441        C  0.44862008  0.57133945  0.18251753    -0.23500
C442        C  0.46372367  0.57465538  0.15726004     0.18800
C443        C  0.44723414  0.56108734  0.13361863     0.16000
C444        C  0.41594840  0.54472716  0.13552459    -0.18500
C445        C  0.46231638  0.56335498  0.10865054    -0.20300
C446        C  0.49350266  0.57864183  0.10717872    -0.12900
C447        C  0.01013338  0.59245497  0.13045712     0.03800
C448        C  0.49504405  0.59063261  0.15542788    -0.25000
H449        H  0.40787313  0.04476570  0.20140083     0.08900
H450        H  0.46244193  0.07608764  0.19843121     0.12500
H451        H  0.40327467  0.53404465  0.11752228     0.12400
H452        H  0.45002986  0.55292170  0.09042256     0.12200
H453        H  0.00461812  0.57973958  0.08771707     0.12700
H454        H  0.50760845  0.60084064  0.17360676     0.14700
C455        C  0.10704879  0.66225426  0.16882570    -0.05400
C456        C  0.09369708  0.67418927  0.18580398    -0.05300
C457        C  0.10970685  0.69302334  0.20678415    -0.23500
C458        C  0.13919222  0.69990558  0.21133809     0.18800
C459        C  0.15293024  0.68809924  0.19442704     0.16000
C460        C  0.13684531  0.66954154  0.17309428    -0.18500
C461        C  0.18232004  0.69468212  0.19947008    -0.20300
C462        C  0.19778805  0.71250094  0.22138976    -0.12900
C463        C  0.18412292  0.72414673  0.23829187     0.03800
C464        C  0.15493488  0.71801080  0.23289535    -0.25000
H465        H  0.07082237  0.66897017  0.18288277     0.08900
H466        H  0.09891207  0.70191421  0.21965439     0.12500
H467        H  0.14731018  0.66026456  0.16028964     0.12400
H468        H  0.19316753  0.68577277  0.18670659     0.12200
H469        H  0.22030631  0.71704784  0.22519485     0.12700
H470        H  0.14411256  0.72682134  0.24585465     0.14700
C471        C  0.13259900  0.54325947  0.03126487    -0.05400
C472        C  0.10185718  0.52573794  0.03736906    -0.05300
C473        C  0.08664794  0.53723606  0.05182207    -0.23500
C474        C  0.10213571  0.56626603  0.06103960     0.18800
C475        C  0.13309971  0.58419444  0.05502157     0.16000
C476        C  0.14809512  0.57275004  0.03962004    -0.18500
C477        C  0.14863698  0.61285057  0.06531050    -0.20300
C478        C  0.13377602  0.62318926  0.08212001    -0.12900
C479        C  0.10304748  0.60532656  0.08830281     0.03800
C480        C  0.08724707  0.57714571  0.07709052    -0.25000
H481        H  0.08948792  0.50299778  0.03087615     0.08900
H482        H  0.06299178  0.52323150  0.05633447     0.12500
H483        H  0.17183083  0.58624549  0.03511261     0.12400
H484        H  0.17233886  0.62687513  0.06102438     0.12200
H485        H  0.14640745  0.64504334  0.09055642     0.12700
H486        H  0.06367205  0.56304041  0.08197322     0.14700
C487        C  0.38899582  0.63442986  0.70578425    -0.05400
C488        C  0.35923741  0.62067604  0.71563534    -0.05300
C489        C  0.34894650  0.59811698  0.73628858    -0.23500
C490        C  0.36821347  0.58877554  0.74714687     0.18800
C491        C  0.39783240  0.60176573  0.73654039     0.16000
C492        C  0.40802504  0.62451924  0.71613337    -0.18500
C493        C  0.41701391  0.59213650  0.74677596    -0.20300
C494        C  0.40715421  0.57017496  0.76775754    -0.12900
C495        C  0.37807879  0.55768808  0.77917874     0.03800
C496        C  0.35856954  0.56697058  0.76860563    -0.25000
H497        H  0.34418687  0.62794928  0.70794790     0.08900
H498        H  0.32610803  0.58826878  0.74399347     0.12500
H499        H  0.43093330  0.63471992  0.70847532     0.12400
H500        H  0.43972239  0.60177807  0.73873900     0.12200
H501        H  0.42260831  0.56346613  0.77552086     0.12700
H502        H  0.33599725  0.55727040  0.77702188     0.14700
C503        C  0.38180184  0.86236920  0.42801063    -0.05400
C504        C  0.37330172  0.88222755  0.41681966    -0.05300
C505        C  0.35172757  0.87319099  0.39663356    -0.23500
C506        C  0.33851397  0.84426591  0.38709444     0.18800
C507        C  0.34777269  0.82446423  0.39731051     0.16000
C508        C  0.36926771  0.83361231  0.41780542    -0.18500
C509        C  0.33481963  0.79566242  0.38729992    -0.20300
C510        C  0.31223077  0.78628235  0.36796849    -0.12900
C511        C  0.30208638  0.80547196  0.35874262     0.03800
C512        C  0.31565726  0.83457919  0.36803071    -0.25000
H513        H  0.38255161  0.90444583  0.42435480     0.08900
H514        H  0.34495382  0.88868654  0.38885790     0.12500
H515        H  0.37586509  0.81817904  0.42613140     0.12400
H516        H  0.34176074  0.78022578  0.39481234     0.12200
H517        H  0.30189932  0.76372109  0.36105151     0.12700
H518        H  0.30804251  0.84958429  0.36072617     0.14700
C519        C  0.42665020  0.77348188  0.59014506    -0.05400
C520        C  0.44773486  0.80343557  0.59405909    -0.05300
C521        C  0.45007766  0.82574598  0.57583140    -0.23500
C522        C  0.43165002  0.81853422  0.55300690     0.18800
C523        C  0.41029282  0.78849539  0.54877614     0.16000
C524        C  0.40759288  0.76611968  0.56761991    -0.18500
C525        C  0.39231497  0.78139215  0.52558249    -0.20300
C526        C  0.39530972  0.80378166  0.50695575    -0.12900
C527        C  0.41616352  0.83381566  0.51122197     0.03800
C528        C  0.43437799  0.84093228  0.53434244    -0.25000
H529        H  0.46253390  0.80966713  0.61138350     0.08900
H530        H  0.46652436  0.84859946  0.57943907     0.12500
H531        H  0.39141788  0.74308625  0.56433928     0.12400
H532        H  0.37595509  0.75854578  0.52182992     0.12200
H533        H  0.38094906  0.79749341  0.48932478     0.12700
H534        H  0.45067903  0.86386044  0.53787624     0.14700
C535        C  0.43952656  0.91964717  0.81890612    -0.05400
C536        C  0.43266929  0.92587055  0.79247787    -0.05300
C537        C  0.41987947  0.94399304  0.78909527    -0.23500
C538        C  0.41319562  0.95569611  0.81214969     0.18800
C539        C  0.41905777  0.94871695  0.83889740     0.16000
C540        C  0.43245453  0.93103900  0.84206867    -0.18500
C541        C  0.41143557  0.95955206  0.86202755    -0.20300
C542        C  0.39796616  0.97703319  0.85867379    -0.12900
C543        C  0.39260135  0.98457731  0.83214893     0.03800
C544        C  0.40052271  0.97404081  0.80892554    -0.25000
H545        H  0.43805173  0.91747477  0.77434578     0.08900
H546        H  0.41532920  0.94893900  0.76847311     0.12500
H547        H  0.43737021  0.92612992  0.86257824     0.12400
H548        H  0.40325408  0.44360009  0.88257115     0.12200
H549        H  0.38010360  0.47452657  0.87610004     0.12700
H550        H  0.39606255  0.97944139  0.78842727     0.14700
C551        C  0.43738845  0.76938202  0.71368091    -0.05400
C552        C  0.41244391  0.77279261  0.71922932    -0.05300
C553        C  0.41360735  0.79260235  0.73872200    -0.23500
C554        C  0.43975434  0.80934854  0.75324237     0.18800
C555        C  0.46478657  0.80561078  0.74844848     0.16000
C556        C  0.46355325  0.78576481  0.72855656    -0.18500
C557        C  0.49068127  0.82194568  0.76352574    -0.20300
C558        C  0.49182514  0.84198604  0.78286570    -0.12900
C559        C  0.46732392  0.84640982  0.78721513     0.03800
C560        C  0.44124983  0.82988950  0.77236119    -0.25000
H561        H  0.39192959  0.76037867  0.70814777     0.08900
H562        H  0.39418081  0.79496747  0.74227322     0.12500
H563        H  0.98280435  0.78318678  0.72462637     0.12400
H564        H  0.01000456  0.81932930  0.76030501     0.12200
H565        H  0.01220620  0.85448789  0.79410725     0.08500
H566        H  0.42213728  0.83281187  0.77584724     0.14700
C567        C  0.09422267  0.95955701  0.93694472    -0.05400
C568        C  0.08488343  0.97916942  0.92679621    -0.05300
C569        C  0.06150296  0.96977072  0.90854947    -0.23500
C570        C  0.04715423  0.94057872  0.89977377     0.18800
C571        C  0.05575732  0.92030835  0.91021178     0.16000
C572        C  0.07902736  0.92980982  0.92915446    -0.18500
C573        C  0.04164261  0.89126370  0.90070485    -0.20300
C574        C  0.02001648  0.88279425  0.88044173    -0.12900
C575        C  0.01168159  0.90299854  0.86985767     0.03800
C576        C  0.02496819  0.93170649  0.88004034    -0.25000
H577        H  0.09623198  0.50192686  0.93265943     0.08900
H578        H  0.05516822  0.98553271  0.90078443     0.12500
H579        H  0.08611841  0.91457454  0.93679028     0.12400
H580        H  0.04781914  0.87536546  0.90842320     0.12200
H581        H  0.50986192  0.86044926  0.87297155     0.12700
H582        H  0.01892472  0.94754201  0.87181716     0.14700
C583        C  0.01161294  0.55279877  0.47895175    -0.05400
C584        C  0.00928055  0.54281884  0.45190964    -0.05300
C585        C  0.49445461  0.51255796  0.44679593    -0.23500
C586        C  0.48056730  0.99185362  0.46944957     0.18800
C587        C  0.98510687  0.50103277  0.49611713     0.16000
C588        C  0.99947283  0.53168550  0.50110408    -0.18500
C589        C  0.97378040  0.98000160  0.51879178    -0.20300
C590        C  0.95914910  0.94963506  0.51340742    -0.12900
C591        C  0.45434987  0.94010001  0.48611236     0.03800
C592        C  0.46534819  0.96143247  0.46424282    -0.25000
H593        H  0.51834345  0.55849239  0.43449163     0.08900
H594        H  0.49254377  0.50562201  0.42566234     0.12500
H595        H  0.00141650  0.53907368  0.52207692     0.12400
H596        H  0.97664146  0.98677386  0.54000888     0.12200
H597        H  0.95074757  0.93359585  0.53058738     0.12700
H598        H  0.46203556  0.95433502  0.44309915     0.14700
C599        C  0.15962292  0.71224350  0.36980779    -0.05400
C600        C  0.15577577  0.68342197  0.37171324    -0.05300
C601        C  0.13528686  0.66213863  0.39081440    -0.23500
C602        C  0.11832845  0.66928950  0.40859018     0.18800
C603        C  0.12218111  0.69823350  0.40693479     0.16000
C604        C  0.14260180  0.71940805  0.38752887    -0.18500
C605        C  0.10564995  0.70567459  0.42483603    -0.20300
C606        C  0.08566056  0.68483141  0.44432782    -0.12900
C607        C  0.08140966  0.65589705  0.44625771     0.03800
C608        C  0.09775276  0.64816401  0.42808140    -0.25000
H609        H  0.16860118  0.67723523  0.35831248     0.08900
H610        H  0.13279932  0.64017048  0.39173870     0.12500
H611        H  0.14539389  0.74150472  0.38638741     0.12400
H612        H  0.10826252  0.72769556  0.42386115     0.12200
H613        H  0.07325078  0.69141652  0.45781436     0.12700
H614        H  0.09482017  0.62601349  0.42936462     0.14700
C615        C  0.02122017  0.63845694  0.53054718    -0.05400
C616        C  0.04169137  0.66659257  0.54017232    -0.05300
C617        C  0.03282037  0.68045558  0.55943600    -0.23500
C618        C  0.00308291  0.66677822  0.56906631     0.18800
C619        C  0.98226171  0.63840218  0.55964863     0.16000
C620        C  0.99156315  0.62418888  0.54081205    -0.18500
C621        C  0.45231502  0.62515903  0.56860348    -0.20300
C622        C  0.44297975  0.64004063  0.58623167    -0.12900
C623        C  0.46345565  0.66825866  0.59569306     0.03800
C624        C  0.99365648  0.68132272  0.58735614    -0.25000
H625        H  0.06465751  0.67807167  0.53254418     0.08900
H626        H  0.04910157  0.70222025  0.56630348     0.12500
H627        H  0.47546017  0.60270997  0.53319115     0.12400
H628        H  0.43597058  0.60347919  0.56159524     0.12200
H629        H  0.41961379  0.62940163  0.59250533     0.12700
H630        H  0.00960921  0.70314873  0.59440088     0.14700
C631        C  0.53042674  0.12597031  0.50978343     0.80100
N632        N  0.55138794  0.14479722  0.49099890    -0.78200
C633        C  0.55959777  0.13463228  0.46899962     0.82500
N634        N  0.54649791  0.10486036  0.46581709    -0.78200
C635        C  0.52542192  0.08545384  0.48452750     0.82600
N636        N  0.51727385  0.09614671  0.50643527    -0.79900
C637        C  0.96800130  0.36685614  0.80915035     0.80100
N638        N  0.95244479  0.38153805  0.80568829    -0.78200
C639        C  0.95496699  0.40201343  0.82405099     0.82500
N640        N  0.97336242  0.40791571  0.84567601    -0.78200
C641        C  0.98909114  0.39353152  0.84923331     0.82600
N642        N  0.98636058  0.37307808  0.83088779    -0.79900
C643        C  0.91773073  0.35713811  0.49079516     0.80100
N644        N  0.93504556  0.38636558  0.49658839    -0.78200
C645        C  0.93633630  0.40790561  0.47906124     0.82500
N646        N  0.91978769  0.39999707  0.45597483    -0.78200
C647        C  0.90227344  0.37099227  0.45011321     0.82600
N648        N  0.90143360  0.34975227  0.46756356    -0.79900
O649        O  0.88378859  0.16689427  0.67129403    -0.58000
C650        C  0.92503309  0.25020787  0.60838212     0.74700
O651        O  0.95657761  0.24773949  0.68336847    -0.59100
C652        C  0.90057095  0.16154448  0.68681293     0.74700
C653        C  0.95119639  0.18364126  0.61427212     0.77000
Cd654      Cd  0.92719943  0.21080592  0.64884901     1.37500
O655        O  0.90156377  0.22514866  0.61352738    -0.57900
O656        O  0.92351851  0.17537647  0.61561163    -0.56800
C657        C  0.93414924  0.24998713  0.69150644     0.77000
O658        O  0.96853305  0.20556568  0.62873892    -0.59100
O659        O  0.94844901  0.25549972  0.62112803    -0.57600
O660        O  0.92857430  0.17902226  0.68432391    -0.57600
O661        O  0.90949616  0.23404608  0.67986189    -0.56700
C662        C  0.59015908  0.11678443  0.10554063     0.80100
N663        N  0.55983080  0.10345878  0.10594091    -0.78200
C664        C  0.54509410  0.10960292  0.12575025     0.82500
N665        N  0.56091672  0.12903671  0.14537307    -0.78200
C666        C  0.59120829  0.14264899  0.14516081     0.82600
N667        N  0.60572364  0.13635758  0.12521749    -0.79900
C668        C  0.82067103  0.50309386  0.14503055     0.80100
N669        N  0.85214594  0.01977198  0.14051976    -0.78200
C670        C  0.87036353  0.01788094  0.15939779     0.82500
N671        N  0.85670849  0.49914930  0.18338521    -0.78200
C672        C  0.82698419  0.47907303  0.18443832     0.82600
N673        N  0.80898416  0.48114001  0.16513308    -0.79900
O674        O  0.68224769  0.26069312  0.34569620    -0.58000
C675        C  0.74166987  0.33213065  0.28082552     0.74700
O676        O  0.76756156  0.27436179  0.32398392    -0.59100
C677        C  0.67983175  0.23529918  0.35026263     0.74700
C678        C  0.69825756  0.24194249  0.26235649     0.77000
Cd679      Cd  0.72290287  0.27618314  0.30944297     1.37500
O680        O  0.71734387  0.31976047  0.29511528    -0.57900
O681        O  0.68605399  0.25409842  0.27543065    -0.56800
C682        C  0.77470596  0.29484871  0.34110899     0.77000
O683        O  0.72316360  0.24592208  0.27096415    -0.59100
O684        O  0.75672904  0.31892460  0.28057260    -0.57600
O685        O  0.69712310  0.22965895  0.33621141    -0.57600
O686        O  0.75780996  0.30599313  0.34321420    -0.56700
C687        C  0.84120170  0.01432878  0.84301620     0.80100
N688        N  0.84891315  0.03382385  0.82112678    -0.78200
C689        C  0.87096957  0.03782945  0.80296655     0.82500
N690        N  0.88525742  0.02200472  0.80678478    -0.78200
C691        C  0.87414125  0.49932260  0.82798286     0.82600
N692        N  0.85209201  0.49597326  0.84581522    -0.79900
O693        O  0.62702693  0.45559448  0.97119066    -0.58000
C694        C  0.70459966  0.49174407  0.03113126     0.74700
O695        O  0.71222871  0.03256740  0.95138317    -0.59100
C696        C  0.62071965  0.47136822  0.95504575     0.74700
C697        C  0.65031524  0.03063384  0.01588882     0.77000
Cd698      Cd  0.67285505  0.50059382  0.98715411     1.37500
O699        O  0.68065914  0.46990030  0.02264399    -0.57900
O700        O  0.64030714  0.00294199  0.01882349    -0.56800
C701        C  0.71602941  0.01169114  0.94280093     0.77000
O702        O  0.67292398  0.04528079  0.99971975    -0.59100
O703        O  0.71348332  0.01551496  0.01812659    -0.57600
O704        O  0.63879086  0.49904198  0.95393688    -0.57600
O705        O  0.69906280  0.48686557  0.95490987    -0.56700
C706        C  0.73882692  0.01656723  0.92149902    -0.05400
C707        C  0.75323961  0.04295952  0.90525550    -0.05300
C708        C  0.77561732  0.04752348  0.88590408    -0.23500
C709        C  0.78424123  0.02597324  0.88291406     0.18800
C710        C  0.76978486  0.99940207  0.89923590     0.16000
C711        C  0.74697832  0.99472738  0.91805470    -0.18500
C712        C  0.77873691  0.97811371  0.89691733    -0.20300
C713        C  0.80209705  0.98318888  0.87878862    -0.12900
C714        C  0.81660686  0.00940962  0.86228185     0.03800
C715        C  0.80734909  0.03066332  0.86426673    -0.25000
H716        H  0.74724646  0.06005425  0.90755966     0.08900
H717        H  0.78647603  0.06805784  0.87360026     0.12500
H718        H  0.73614326  0.97434128  0.93061458     0.12400
H719        H  0.76787862  0.95765660  0.90934453     0.12200
H720        H  0.80862087  0.96638074  0.87751246     0.12700
H721        H  0.81847670  0.05105353  0.85175225     0.14700
C722        C  0.75226545  0.36024324  0.26460327    -0.05400
C723        C  0.73207163  0.36659380  0.25104624    -0.05300
C724        C  0.74251173  0.39145417  0.23296754    -0.23500
C725        C  0.77333403  0.41064268  0.22855298     0.18800
C726        C  0.79374328  0.40502225  0.24305686     0.16000
C727        C  0.78311231  0.37976074  0.26069592    -0.18500
C728        C  0.82448581  0.42444125  0.23930466    -0.20300
C729        C  0.83501654  0.44879664  0.22081830    -0.12900
C730        C  0.81507942  0.45416333  0.20539594     0.03800
C731        C  0.78411474  0.43504808  0.20964192    -0.25000
H732        H  0.70822743  0.35167798  0.25359153     0.08900
H733        H  0.72649275  0.39542920  0.22215264     0.12500
H734        H  0.79885210  0.37506723  0.27118418     0.12400
H735        H  0.84043586  0.42060608  0.25043825     0.12200
H736        H  0.85895220  0.46306198  0.21817263     0.12700
H737        H  0.76843582  0.43897942  0.19814139     0.14700
C738        C  0.72218656  0.48870823  0.05366988    -0.05400
C739        C  0.71070287  0.46256173  0.07019809    -0.05300
C740        C  0.72727890  0.46029464  0.09189456    -0.23500
C741        C  0.75576126  0.48404727  0.09726139     0.18800
C742        C  0.76757877  0.51031725  0.08053579     0.16000
C743        C  0.75074295  0.51251034  0.05900675    -0.18500
C744        C  0.79610763  0.53397417  0.08552450    -0.20300
C745        C  0.81297686  0.53156922  0.10669027    -0.12900
C746        C  0.80165378  0.50553418  0.12349766     0.03800
C747        C  0.77275878  0.48189690  0.11881487    -0.25000
H748        H  0.68876253  0.44396186  0.06652853     0.08900
H749        H  0.71784539  0.43994566  0.10443141     0.12500
H750        H  0.75998642  0.53277734  0.04631511     0.12400
H751        H  0.80549573  0.55428840  0.07291245     0.12200
H752        H  0.83503800  0.55021969  0.10983515     0.12700
H753        H  0.76376070  0.46165196  0.13148111     0.14700
C754        C  0.90283441  0.03836653  0.15742306    -0.05400
C755        C  0.91919683  0.04975625  0.18136221    -0.05300
C756        C  0.95028317  0.06757425  0.17969531    -0.23500
C757        C  0.96550307  0.07342392  0.15410635     0.18800
C758        C  0.94915906  0.06201784  0.12989466     0.16000
C759        C  0.91785965  0.04515243  0.13163127    -0.18500
C760        C  0.96443525  0.06679832  0.10449052    -0.20300
C761        C  0.99565643  0.08228044  0.10315679    -0.12900
C762        C  0.51209628  0.09390717  0.12704424     0.03800
C763        C  0.99682098  0.08971998  0.15245522    -0.25000
H764        H  0.90619554  0.55103400  0.20427248     0.08900
H765        H  0.96088240  0.58149579  0.20083297     0.12500
H766        H  0.90531013  0.03609616  0.11315796     0.12400
H767        H  0.95227375  0.05807093  0.08578567     0.12200
H768        H  0.50696659  0.08527184  0.08336619     0.12700
H769        H  0.00927333  0.09823166  0.17106914     0.14700
C770        C  0.60788382  0.16247921  0.16759638    -0.05400
C771        C  0.59286606  0.17067538  0.18677491    -0.05300
C772        C  0.60791602  0.18815115  0.20882953    -0.23500
C773        C  0.63820784  0.19759302  0.21222236     0.18800
C774        C  0.65368813  0.18963259  0.19313517     0.16000
C775        C  0.63847673  0.17230992  0.17077036    -0.18500
C776        C  0.68397115  0.19882539  0.19702039    -0.20300
C777        C  0.69870107  0.21569501  0.21970825    -0.12900
C778        C  0.68339001  0.22383907  0.23852809     0.03800
C779        C  0.65315660  0.21471567  0.23458541    -0.25000
H780        H  0.56934847  0.16344648  0.18487357     0.08900
H781        H  0.59577902  0.19405911  0.22337937     0.12500
H782        H  0.65031145  0.16601985  0.15624910     0.12400
H783        H  0.69617941  0.19286339  0.18262529     0.12200
H784        H  0.72205084  0.22259313  0.22239719     0.12700
H785        H  0.64105557  0.22068039  0.24914092     0.14700
C786        C  0.63523310  0.04434308  0.03025391    -0.05400
C787        C  0.60452438  0.02694571  0.03649087    -0.05300
C788        C  0.58940669  0.03864802  0.05071098    -0.23500
C789        C  0.60493075  0.06781540  0.05953901     0.18800
C790        C  0.63588896  0.08567056  0.05346094     0.16000
C791        C  0.65084230  0.07397394  0.03829154    -0.18500
C792        C  0.65138240  0.11450766  0.06341636    -0.20300
C793        C  0.63644365  0.12508337  0.07989427    -0.12900
C794        C  0.60569238  0.10728359  0.08603505     0.03800
C795        C  0.59000222  0.07890832  0.07521614    -0.25000
H796        H  0.59206495  0.00411877  0.03023169     0.08900
H797        H  0.56575943  0.02471386  0.05529343     0.12500
H798        H  0.67455926  0.08738309  0.03367073     0.12400
H799        H  0.67507855  0.12849914  0.05910627     0.12200
H800        H  0.64900636  0.14707456  0.08808498     0.12700
H801        H  0.56643271  0.06481356  0.08011967     0.14700
C802        C  0.88884391  0.13627588  0.70706397    -0.05400
C803        C  0.85945971  0.12287355  0.71784798    -0.05300
C804        C  0.84970930  0.10041288  0.73854442    -0.23500
C805        C  0.86914599  0.09083989  0.74846895     0.18800
C806        C  0.89837563  0.10354618  0.73695496     0.16000
C807        C  0.90804676  0.12622549  0.71656914    -0.18500
C808        C  0.91770031  0.09368191  0.74622962    -0.20300
C809        C  0.90841359  0.07181292  0.76721846    -0.12900
C810        C  0.87978729  0.05966645  0.77957950     0.03800
C811        C  0.86007803  0.06909964  0.76989465    -0.25000
H812        H  0.84431082  0.13030520  0.71081271     0.08900
H813        H  0.82716313  0.09079167  0.74697454     0.12500
H814        H  0.93066396  0.13618238  0.70817866     0.12400
H815        H  0.94009902  0.10309176  0.73745273     0.12200
H816        H  0.92399479  0.06495021  0.77426108     0.12700
H817        H  0.83781972  0.05963266  0.77902605     0.14700
C818        C  0.88217305  0.36246868  0.42643146    -0.05400
C819        C  0.87391799  0.38247226  0.41513826    -0.05300
C820        C  0.85215150  0.37345704  0.39512939    -0.23500
C821        C  0.83848890  0.34440122  0.38586514     0.18800
C822        C  0.84766083  0.32450413  0.39600184     0.16000
C823        C  0.86937156  0.33364197  0.41631197    -0.18500
C824        C  0.83430880  0.29559042  0.38619562    -0.20300
C825        C  0.81132290  0.28616363  0.36726643    -0.12900
C826        C  0.80117067  0.30541781  0.35825871     0.03800
C827        C  0.81521483  0.33466101  0.36723234    -0.25000
H828        H  0.88341453  0.40476390  0.42255011     0.08900
H829        H  0.84549924  0.38904767  0.38735892     0.12500
H830        H  0.87581116  0.31809945  0.42467166     0.12400
H831        H  0.84120938  0.28008608  0.39360845     0.12200
H832        H  0.80068102  0.26352313  0.36053473     0.12700
H833        H  0.80762703  0.34972837  0.36004290     0.14700
C834        C  0.92581471  0.27303638  0.58901011    -0.05400
C835        C  0.94668356  0.30301322  0.59307070    -0.05300
C836        C  0.94900580  0.32529291  0.57485091    -0.23500
C837        C  0.93078272  0.31802861  0.55188724     0.18800
C838        C  0.90973669  0.28795286  0.54741241     0.16000
C839        C  0.90706190  0.26558010  0.56624530    -0.18500
C840        C  0.89199780  0.28084999  0.52404346    -0.20300
C841        C  0.89491729  0.30329184  0.50550842    -0.12900
C842        C  0.91546880  0.33334699  0.51004507     0.03800
C843        C  0.93342246  0.34044570  0.53333506    -0.25000
H844        H  0.96126011  0.30930473  0.61056412     0.08900
H845        H  0.96523249  0.34817689  0.57861238     0.12500
H846        H  0.89108243  0.24251635  0.56284628     0.12400
H847        H  0.87588709  0.25798080  0.52009404     0.12200
H848        H  0.88077497  0.29703106  0.48771777     0.12700
H849        H  0.94948771  0.36338863  0.53708153     0.14700
C850        C  0.93932057  0.41912521  0.81996668    -0.05400
C851        C  0.93713447  0.42923335  0.79342412    -0.05300
C852        C  0.92469364  0.44763645  0.78978294    -0.23500
C853        C  0.91355696  0.45563912  0.81259405     0.18800
C854        C  0.91476580  0.44475840  0.83930078     0.16000
C855        C  0.92802992  0.42695122  0.84285972    -0.18500
C856        C  0.90268548  0.45187844  0.86198669    -0.20300
C857        C  0.88946880  0.46955958  0.85824511    -0.12900
C858        C  0.88863972  0.48099679  0.83186092     0.03800
C859        C  0.90099972  0.47410218  0.80910892    -0.25000
H860        H  0.94592801  0.42365500  0.77555505     0.08900
H861        H  0.92381816  0.45562625  0.76916028     0.12500
H862        H  0.92946424  0.41905995  0.86338700     0.12400
H863        H  0.91566328  0.95431854  0.88267669     0.12200
H864        H  0.89200917  0.98494881  0.87682312     0.12700
H865        H  0.90017869  0.48246873  0.78863298     0.14700
C866        C  0.93603095  0.27020292  0.71337172    -0.05400
C867        C  0.91127579  0.27388605  0.71904194    -0.05300
C868        C  0.91247668  0.29319833  0.73911465    -0.23500
C869        C  0.93848108  0.30918246  0.75406118     0.18800
C870        C  0.96333706  0.30522381  0.74906764     0.16000
C871        C  0.96205981  0.28587801  0.72862015    -0.18500
C872        C  0.98909980  0.32082679  0.76452414    -0.20300
C873        C  0.99032680  0.34045049  0.78438986    -0.12900
C874        C  0.96603655  0.34516124  0.78889537     0.03800
C875        C  0.94004534  0.32924925  0.77374812    -0.25000
H876        H  0.89086542  0.26199416  0.70769335     0.08900
H877        H  0.89318682  0.29576161  0.74280302     0.12500
H878        H  0.48115710  0.28305917  0.72461690     0.12400
H879        H  0.50827735  0.31799602  0.76116308     0.12200
H880        H  0.51062848  0.35246902  0.79585522     0.08500
H881        H  0.92108083  0.33239302  0.77734057     0.14700
C882        C  0.59389791  0.45918221  0.93794942    -0.05400
C883        C  0.58486794  0.47881603  0.92721071    -0.05300
C884        C  0.56151171  0.46926078  0.90895127    -0.23500
C885        C  0.54681186  0.43985501  0.90078667     0.18800
C886        C  0.55507337  0.41953842  0.91180197     0.16000
C887        C  0.57837959  0.42923063  0.93075322    -0.18500
C888        C  0.54054265  0.39024924  0.90286643    -0.20300
C889        C  0.51878186  0.38156185  0.88267362    -0.12900
C890        C  0.51073008  0.40181076  0.87160739     0.03800
C891        C  0.52454007  0.43079883  0.88113663    -0.25000
H892        H  0.59603379  0.00213904  0.93267999     0.08900
H893        H  0.55543053  0.48505206  0.90073191     0.12500
H894        H  0.58522114  0.41396975  0.93886260     0.12400
H895        H  0.54645904  0.37430184  0.91100241     0.12200
H896        H  0.00829423  0.35903512  0.87564680     0.12700
H897        H  0.51878422  0.44668616  0.87249137     0.14700
C898        C  0.51016042  0.05309546  0.47982511    -0.05400
C899        C  0.50677301  0.04319374  0.45267825    -0.05300
C900        C  0.99188964  0.01293587  0.44752342    -0.23500
C901        C  0.98211274  0.49151830  0.46867080     0.18800
C902        C  0.48439188  0.00134521  0.49693663     0.16000
C903        C  0.49876242  0.03196102  0.50197493    -0.18500
C904        C  0.47353042  0.47965528  0.51794973    -0.20300
C905        C  0.45862882  0.44927310  0.51254052    -0.12900
C906        C  0.95451401  0.43976827  0.48522492     0.03800
C907        C  0.96659363  0.46110705  0.46341847    -0.25000
H908        H  0.01518483  0.05894415  0.43527895     0.08900
H909        H  0.98924874  0.00602455  0.42634635     0.12500
H910        H  0.50145740  0.03932068  0.52300417     0.12400
H911        H  0.47578792  0.48641552  0.53914931     0.12200
H912        H  0.44945978  0.43321937  0.52967988     0.12700
H913        H  0.96385879  0.45401710  0.44228291     0.14700
C914        C  0.65819168  0.21299985  0.37081079    -0.05400
C915        C  0.65476828  0.18434917  0.37282748    -0.05300
C916        C  0.63469868  0.16306655  0.39214721    -0.23500
C917        C  0.61770211  0.17001340  0.41005379     0.18800
C918        C  0.62111689  0.19879187  0.40833734     0.16000
C919        C  0.64112804  0.21999239  0.38867362    -0.18500
C920        C  0.60455669  0.20601234  0.42643010    -0.20300
C921        C  0.58490611  0.18509057  0.44606865    -0.12900
C922        C  0.58100204  0.15628108  0.44794718     0.03800
C923        C  0.59746366  0.14880482  0.42968755    -0.25000
H924        H  0.66762721  0.17828569  0.35934579     0.08900
H925        H  0.63255833  0.14124002  0.39312557     0.12500
H926        H  0.64360430  0.24196366  0.38746556     0.12400
H927        H  0.60684381  0.22790343  0.42545817     0.12200
H928        H  0.57240947  0.19148119  0.45965210     0.12700
H929        H  0.59482878  0.12677068  0.43097350     0.14700
C930        C  0.52097498  0.13868097  0.53222871    -0.05400
C931        C  0.54082709  0.16756083  0.54070558    -0.05300
C932        C  0.53157508  0.18157053  0.55942523    -0.23500
C933        C  0.50208134  0.16722527  0.56976283     0.18800
C934        C  0.48192072  0.13804726  0.56166654     0.16000
C935        C  0.49162338  0.12375114  0.54331797    -0.18500
C936        C  0.95216743  0.12409536  0.57138288    -0.20300
C937        C  0.94237694  0.13903075  0.58847963    -0.12900
C938        C  0.96224357  0.16801448  0.59666944     0.03800
C939        C  0.49224147  0.18184567  0.58750416    -0.25000
H940        H  0.56355640  0.17958101  0.53248994     0.08900
H941        H  0.54734260  0.20395028  0.56529962     0.12500
H942        H  0.97596447  0.10164881  0.53665683     0.12400
H943        H  0.93631289  0.10178726  0.56538459     0.12200
H944        H  0.91918073  0.12782805  0.59539554     0.12700
H945        H  0.50769830  0.20427677  0.59352753     0.14700
C946        C  0.53057635  0.62579247  0.50800648     0.80100
N947        N  0.55137207  0.64462278  0.48909298    -0.78200
C948        C  0.55989557  0.63439198  0.46734184     0.82500
N949        N  0.54731766  0.60461181  0.46459419    -0.78200
C950        C  0.52638588  0.58521170  0.48339774     0.82600
N951        N  0.51789268  0.59593929  0.50504249    -0.79900
C952        C  0.96909806  0.86811475  0.80735954     0.80100
N953        N  0.95316922  0.88245530  0.80408093    -0.78200
C954        C  0.95566582  0.90292068  0.82248507     0.82500
N955        N  0.97430009  0.90902270  0.84394230    -0.78200
C956        C  0.99022868  0.89487355  0.84737098     0.82600
N957        N  0.98758810  0.87451404  0.82899432    -0.79900
C958        C  0.91827477  0.85752224  0.49192416     0.80100
N959        N  0.93554832  0.88680186  0.49757076    -0.78200
C960        C  0.93643209  0.90819546  0.48008472     0.82500
N961        N  0.91954637  0.90008910  0.45722980    -0.78200
C962        C  0.90210681  0.87105630  0.45151502     0.82600
N963        N  0.90165355  0.84995913  0.46889108    -0.79900
O964        O  0.88485104  0.66588127  0.67023971    -0.58000
C965        C  0.92608857  0.75050989  0.60922050     0.74700
O966        O  0.95819262  0.74719240  0.68359372    -0.59100
C967        C  0.90124329  0.66006685  0.68584588     0.74700
C968        C  0.95270650  0.68388052  0.61365358     0.77000
Cd969      Cd  0.92867141  0.71042626  0.64889230     1.37500
O970        O  0.90267557  0.72542529  0.61440254    -0.57900
O971        O  0.92516534  0.67618401  0.61466166    -0.56800
C972        C  0.93561121  0.74902788  0.69201958     0.77000
O973        O  0.97007312  0.70516147  0.62874746    -0.59100
O974        O  0.94966706  0.75559584  0.62155117    -0.57600
O975        O  0.92928126  0.67752712  0.68386275    -0.57600
O976        O  0.91087620  0.73270621  0.68067521    -0.56700
C977        C  0.58777478  0.61472845  0.10815900     0.80100
N978        N  0.55747610  0.60136092  0.10910185    -0.78200
C979        C  0.54312657  0.60796746  0.12893220     0.82500
N980        N  0.55935288  0.62797209  0.14805548    -0.78200
C981        C  0.58965439  0.64153160  0.14728807     0.82600
N982        N  0.60371807  0.63475268  0.12733476    -0.79900
C983        C  0.82231039  0.00010698  0.14141940     0.80100
N984        N  0.85052888  0.52257952  0.14415128    -0.78200
C985        C  0.86853832  0.52084937  0.16334119     0.82500
N986        N  0.85872204  0.99583710  0.17915316    -0.78200
C987        C  0.82902654  0.97563993  0.18021208     0.82600
N988        N  0.81085092  0.97789576  0.16125600    -0.79900
O989        O  0.68419966  0.76018138  0.34528720    -0.58000
C990        C  0.74328042  0.83133542  0.27972575     0.74700
O991        O  0.76903741  0.77422969  0.32424236    -0.59100
C992        C  0.68147547  0.73459947  0.34944727     0.74700
C993        C  0.69935536  0.74211364  0.26207813     0.77000
Cd994      Cd  0.72453555  0.77590118  0.30903949     1.37500
O995        O  0.71941612  0.81975685  0.29469272    -0.57900
O996        O  0.68732187  0.75417228  0.27557728    -0.56800
C997        C  0.77598980  0.79491040  0.34111973     0.77000
O998        O  0.72434787  0.74592755  0.27030698    -0.59100
O999        O  0.75777067  0.81754654  0.27917003    -0.57600
O1000       O  0.69856301  0.72886586  0.33515733    -0.57600
O1001       O  0.75916817  0.80618948  0.34262502    -0.56700
C1002       C  0.83806550  0.51207144  0.84215135     0.80100
N1003       N  0.84640728  0.53183623  0.82039570    -0.78200
C1004       C  0.86853213  0.53554540  0.80242495     0.82500
N1005       N  0.88227993  0.51918879  0.80632867    -0.78200
C1006       C  0.87780725  0.00251746  0.82864050     0.82600
N1007       N  0.85583101  0.99883236  0.84671058    -0.79900
O1008       O  0.62766803  0.95542462  0.96941501    -0.58000
C1009       C  0.70457422  0.99049018  0.03019000     0.74700
O1010       O  0.71151955  0.53329220  0.95214244    -0.59100
C1011       C  0.62103829  0.97149860  0.95404415     0.74700
C1012       C  0.64805355  0.52994648  0.01683693     0.77000
Cd1013     Cd  0.67346779  0.00001187  0.98604609     1.37500
O1014       O  0.68033932  0.96887913  0.02188543    -0.57900
O1015       O  0.63819642  0.50225015  0.01927274    -0.56800
C1016       C  0.71527825  0.51236131  0.94360879     0.77000
O1017       O  0.67107880  0.54507599  0.00124980    -0.59100
O1018       O  0.71300282  0.51680458  0.01933633    -0.57600
O1019       O  0.63882832  0.99921271  0.95368612    -0.57600
O1020       O  0.69969543  0.98610931  0.95388711    -0.56700
C1021       C  0.73781969  0.51695259  0.92207747    -0.05400
C1022       C  0.75157890  0.54274927  0.90496661    -0.05300
C1023       C  0.77336059  0.54669222  0.88512102    -0.23500
C1024       C  0.78203706  0.52511602  0.88247328     0.18800
C1025       C  0.76827862  0.49921177  0.89973469     0.16000
C1026       C  0.74612641  0.49517320  0.91907359    -0.18500
C1027       C  0.77719123  0.47787394  0.89776786    -0.20300
C1028       C  0.79984308  0.48222353  0.87906654    -0.12900
C1029       C  0.81377660  0.50779407  0.86163958     0.03800
C1030       C  0.80450344  0.52910413  0.86326066    -0.25000
H1031       H  0.74545446  0.55979371  0.90689871     0.08900
H1032       H  0.78366754  0.56673333  0.87211354     0.12500
H1033       H  0.73583173  0.47525919  0.93229676     0.12400
H1034       H  0.76685298  0.45792511  0.91091935     0.12200
H1035       H  0.80635003  0.46538139  0.87817744     0.12700
H1036       H  0.81514762  0.54900629  0.85005963     0.14700
C1037       C  0.75411304  0.85925512  0.26312565    -0.05400
C1038       C  0.73413341  0.86681345  0.25088198    -0.05300
C1039       C  0.74469232  0.89136707  0.23238066    -0.23500
C1040       C  0.77543729  0.90899553  0.22621231     0.18800
C1041       C  0.79570241  0.90218055  0.23940858     0.16000
C1042       C  0.78491995  0.87729950  0.25751200    -0.18500
C1043       C  0.82642988  0.92003033  0.23393149    -0.20300
C1044       C  0.83705210  0.94410508  0.21511458    -0.12900
C1045       C  0.81718428  0.95070988  0.20109161     0.03800
C1046       C  0.78627675  0.93306323  0.20691426    -0.25000
H1047       H  0.71029753  0.85306321  0.25477819     0.08900
H1048       H  0.72879557  0.89630808  0.22260836     0.12500
H1049       H  0.80051785  0.87171480  0.26700995     0.12400
H1050       H  0.84226941  0.91521926  0.24402614     0.12200
H1051       H  0.86093272  0.95721644  0.21115123     0.12700
H1052       H  0.77069647  0.93800821  0.19648158     0.14700
C1053       C  0.72206638  0.98727799  0.05271847    -0.05400
C1054       C  0.71030815  0.96136252  0.06961459    -0.05300
C1055       C  0.72712412  0.95888705  0.09099487    -0.23500
C1056       C  0.75612514  0.98216647  0.09561487     0.18800
C1057       C  0.76808919  0.00825706  0.07863048     0.16000
C1058       C  0.75100064  0.01070010  0.05750526    -0.18500
C1059       C  0.79709474  0.03144612  0.08283125    -0.20300
C1060       C  0.81435720  0.02871300  0.10339745    -0.12900
C1061       C  0.80295746  0.00282949  0.12041714     0.03800
C1062       C  0.77353728  0.97969622  0.11659453    -0.25000
H1063       H  0.68804160  0.94308322  0.06640682     0.08900
H1064       H  0.71753216  0.93870083  0.10377778     0.12500
H1065       H  0.76042960  0.03080134  0.04457182     0.12400
H1066       H  0.80657593  0.05161833  0.07001192     0.12200
H1067       H  0.83678949  0.04699572  0.10588755     0.12700
H1068       H  0.76442361  0.95958688  0.12947153     0.14700
C1069       C  0.90103713  0.54066649  0.16103377    -0.05400
C1070       C  0.91748687  0.55403711  0.18445717    -0.05300
C1071       C  0.94861831  0.57134190  0.18251811    -0.23500
C1072       C  0.96372119  0.57465573  0.15726064     0.18800
C1073       C  0.94723104  0.56108545  0.13362019     0.16000
C1074       C  0.91594535  0.54472542  0.13552698    -0.18500
C1075       C  0.96231259  0.56335116  0.10865211    -0.20300
C1076       C  0.99349894  0.57863877  0.10717945    -0.12900
C1077       C  0.51013651  0.59245563  0.13045736     0.03800
C1078       C  0.99504149  0.59063344  0.15542758    -0.25000
H1079       H  0.90787419  0.04476256  0.20140192     0.08900
H1080       H  0.96244338  0.07608127  0.19843340     0.12500
H1081       H  0.90327101  0.53404141  0.11752531     0.12400
H1082       H  0.95002576  0.55291627  0.09042514     0.12200
H1083       H  0.50462241  0.57974399  0.08771622     0.12700
H1084       H  0.00760627  0.60084325  0.17360573     0.14700
C1085       C  0.60705186  0.66225379  0.16882659    -0.05400
C1086       C  0.59369899  0.67418648  0.18580630    -0.05300
C1087       C  0.60970818  0.69302010  0.20678684    -0.23500
C1088       C  0.63919431  0.69990436  0.21133961     0.18800
C1089       C  0.65293369  0.68810057  0.19442713     0.16000
C1090       C  0.63684926  0.66954316  0.17309393    -0.18500
C1091       C  0.68232444  0.69468562  0.19946909    -0.20300
C1092       C  0.69779195  0.71250444  0.22138900    -0.12900
C1093       C  0.68412554  0.72414798  0.23829221     0.03800
C1094       C  0.65493644  0.71800939  0.23289701    -0.25000
H1095       H  0.57082359  0.66896576  0.18288610     0.08900
H1096       H  0.59891249  0.70190901  0.21965818     0.12500
H1097       H  0.64731497  0.66026823  0.16028830     0.12400
H1098       H  0.69317283  0.68577829  0.18670472     0.12200
H1099       H  0.72031132  0.71705340  0.22519321     0.12700
H1100       H  0.64411298  0.72681801  0.24585729     0.14700
C1101       C  0.63260134  0.54325647  0.03126829    -0.05400
C1102       C  0.60186108  0.52573226  0.03737858    -0.05300
C1103       C  0.58665202  0.53722955  0.05183301    -0.23500
C1104       C  0.60213845  0.56626146  0.06104582     0.18800
C1105       C  0.63310094  0.58419249  0.05502196     0.16000
C1106       C  0.64809606  0.57274874  0.03961909    -0.18500
C1107       C  0.64863720  0.61285086  0.06530629    -0.20300
C1108       C  0.63377679  0.62318949  0.08211671    -0.12900
C1109       C  0.60304969  0.60532437  0.08830465     0.03800
C1110       C  0.58725023  0.57714095  0.07709743    -0.25000
H1111       H  0.58949287  0.50299076  0.03088914     0.08900
H1112       H  0.56299690  0.52322292  0.05635000     0.12500
H1113       H  0.67183049  0.58624624  0.03510696     0.12400
H1114       H  0.67233786  0.62687738  0.06101576     0.12200
H1115       H  0.64640729  0.64504541  0.09054930     0.12700
H1116       H  0.56367628  0.56303376  0.08198452     0.14700
C1117       C  0.88899411  0.63443305  0.70578156    -0.05400
C1118       C  0.85923691  0.62068147  0.71563567    -0.05300
C1119       C  0.84894688  0.59812303  0.73628954    -0.23500
C1120       C  0.86821377  0.58878017  0.74714554     0.18800
C1121       C  0.89783118  0.60176791  0.73653563     0.16000
C1122       C  0.90802270  0.62452046  0.71612791    -0.18500
C1123       C  0.91701274  0.59213772  0.74676878    -0.20300
C1124       C  0.90715490  0.57017791  0.76775163    -0.12900
C1125       C  0.87808130  0.55769340  0.77917652     0.03800
C1126       C  0.85857160  0.56697656  0.76860555    -0.25000
H1127       H  0.84418658  0.62795642  0.70795020     0.08900
H1128       H  0.82610955  0.58827669  0.74399699     0.12500
H1129       H  0.93093002  0.63471934  0.70846748     0.12400
H1130       H  0.93972005  0.60177752  0.73872908     0.12200
H1131       H  0.92260950  0.56346854  0.77551315     0.12700
H1132       H  0.83600060  0.55727827  0.77702458     0.14700
C1133       C  0.88179668  0.86237432  0.42801602    -0.05400
C1134       C  0.87329397  0.88223187  0.41682803    -0.05300
C1135       C  0.85171917  0.87319536  0.39664249    -0.23500
C1136       C  0.83850763  0.84427138  0.38710092     0.18800
C1137       C  0.84776862  0.82447056  0.39731456     0.16000
C1138       C  0.86926397  0.83361841  0.41780902    -0.18500
C1139       C  0.83481794  0.79567000  0.38730158    -0.20300
C1140       C  0.81222962  0.78629018  0.36796980    -0.12900
C1141       C  0.80208316  0.80547876  0.35874593     0.03800
C1142       C  0.81565124  0.83458475  0.36803686    -0.25000
H1143       H  0.88254266  0.90444926  0.42436481     0.08900
H1144       H  0.84494358  0.88869041  0.38886877     0.12500
H1145       H  0.87586340  0.81818574  0.42613287     0.12400
H1146       H  0.84176088  0.78023396  0.39481225     0.12200
H1147       H  0.80190032  0.76372982  0.36105066     0.12700
H1148       H  0.80803475  0.84958928  0.36073381     0.14700
C1149       C  0.92665818  0.77348873  0.59014348    -0.05400
C1150       C  0.94774625  0.80344203  0.59405442    -0.05300
C1151       C  0.95008895  0.82575211  0.57582629    -0.23500
C1152       C  0.93165763  0.81854022  0.55300443     0.18800
C1153       C  0.91029746  0.78850173  0.54877652     0.16000
C1154       C  0.90759782  0.76612647  0.56762066    -0.18500
C1155       C  0.89231581  0.78139811  0.52558549    -0.20300
C1156       C  0.89530958  0.80378720  0.50695870    -0.12900
C1157       C  0.91616611  0.83382096  0.51122228     0.03800
C1158       C  0.93438457  0.84093779  0.53433994    -0.25000
H1159       H  0.96254785  0.80967369  0.61137702     0.08900
H1160       H  0.96653798  0.84860524  0.57943166     0.12500
H1161       H  0.89142034  0.74309355  0.56434237     0.12400
H1162       H  0.87595381  0.75855217  0.52183518     0.12200
H1163       H  0.88094586  0.79749879  0.48932990     0.12700
H1164       H  0.95068785  0.86386585  0.53787162     0.14700
C1165       C  0.93952994  0.91965319  0.81890607    -0.05400
C1166       C  0.93267454  0.92587911  0.79247801    -0.05300
C1167       C  0.91988741  0.94400403  0.78909615    -0.23500
C1168       C  0.91320434  0.95570702  0.81215112     0.18800
C1169       C  0.91906455  0.94872530  0.83889861     0.16000
C1170       C  0.93245846  0.93104476  0.84206907    -0.18500
C1171       C  0.91144326  0.95956051  0.86202923    -0.20300
C1172       C  0.89797585  0.97704349  0.85867624    -0.12900
C1173       C  0.89261210  0.98458938  0.83215169     0.03800
C1174       C  0.90053359  0.97405369  0.80892777    -0.25000
H1175       H  0.93805683  0.91748366  0.77434544     0.08900
H1176       H  0.91533860  0.94895202  0.76847406     0.12500
H1177       H  0.93737286  0.92613371  0.86257877     0.12400
H1178       H  0.90326062  0.44360744  0.88257099     0.12200
H1179       H  0.88011340  0.47453678  0.87610064     0.12700
H1180       H  0.89607435  0.97945570  0.78842968     0.14700
C1181       C  0.93738754  0.76938238  0.71368401    -0.05400
C1182       C  0.91244148  0.77278957  0.71923556    -0.05300
C1183       C  0.91360518  0.79259955  0.73872810    -0.23500
C1184       C  0.93975384  0.80934940  0.75324506     0.18800
C1185       C  0.96478742  0.80561453  0.74844837     0.16000
C1186       C  0.96355382  0.78576813  0.72855685    -0.18500
C1187       C  0.99068402  0.82195303  0.76352212    -0.20300
C1188       C  0.99182841  0.84199417  0.78286137    -0.12900
C1189       C  0.96732580  0.84641510  0.78721355     0.03800
C1190       C  0.94124985  0.82989122  0.77236311    -0.25000
H1191       H  0.89192602  0.76037308  0.70815644     0.08900
H1192       H  0.89417735  0.79496229  0.74228165     0.12500
H1193       H  0.48280283  0.78318087  0.72462843     0.12400
H1194       H  0.51000078  0.81931969  0.76031084     0.12200
H1195       H  0.51220151  0.85447699  0.79411425     0.08500
H1196       H  0.92213623  0.83281146  0.77585143     0.14700
C1197       C  0.59421928  0.95955135  0.93694594    -0.05400
C1198       C  0.58488157  0.97916432  0.92679553    -0.05300
C1199       C  0.56150113  0.96976556  0.90854895    -0.23500
C1200       C  0.54715056  0.94057281  0.89977539     0.18800
C1201       C  0.55575163  0.92030167  0.91021559     0.16000
C1202       C  0.57902196  0.92980335  0.92915806    -0.18500
C1203       C  0.54163475  0.89125610  0.90071081    -0.20300
C1204       C  0.52000885  0.88278661  0.88044738    -0.12900
C1205       C  0.51167636  0.90299187  0.86986098     0.03800
C1206       C  0.52496476  0.93170066  0.88004175    -0.25000
H1207       H  0.59623940  0.50193195  0.93264713     0.08900
H1208       H  0.55516783  0.98552818  0.90078220     0.12500
H1209       H  0.58611168  0.91456753  0.93679547     0.12400
H1210       H  0.54780955  0.87535711  0.90843093     0.12200
H1211       H  0.00987111  0.86045756  0.87296440     0.12700
H1212       H  0.51892313  0.94753672  0.87181685     0.14700
C1213       C  0.51161075  0.55279665  0.47894992    -0.05400
C1214       C  0.50927942  0.54281513  0.45190865    -0.05300
C1215       C  0.99445585  0.51256198  0.44679537    -0.23500
C1216       C  0.98057260  0.99185837  0.46944977     0.18800
C1217       C  0.48510300  0.50103155  0.49611797     0.16000
C1218       C  0.49946923  0.53168466  0.50110332    -0.18500
C1219       C  0.47377697  0.97999742  0.51879166    -0.20300
C1220       C  0.45914562  0.94963064  0.51340760    -0.12900
C1221       C  0.95435386  0.94010474  0.48611217     0.03800
C1222       C  0.96535336  0.96143725  0.46424264    -0.25000
H1223       H  0.01834364  0.55849707  0.43449341     0.08900
H1224       H  0.99254411  0.50562724  0.42566106     0.12500
H1225       H  0.50141188  0.53907399  0.52207535     0.12400
H1226       H  0.47663883  0.98676991  0.54000872     0.12200
H1227       H  0.45074504  0.93359174  0.53058754     0.12700
H1228       H  0.96204114  0.95433990  0.44309911     0.14700
C1229       C  0.65961913  0.71224190  0.36980147    -0.05400
C1230       C  0.65576711  0.68341823  0.37170197    -0.05300
C1231       C  0.63527675  0.66213400  0.39080186    -0.23500
C1232       C  0.61832217  0.66928606  0.40858142     0.18800
C1233       C  0.62217981  0.69823215  0.40693069     0.16000
C1234       C  0.64260144  0.71940734  0.38752589    -0.18500
C1235       C  0.60565284  0.70567469  0.42483559    -0.20300
C1236       C  0.58566276  0.68483113  0.44432661    -0.12900
C1237       C  0.58140692  0.65589470  0.44625231     0.03800
C1238       C  0.59774571  0.64816009  0.42807207    -0.25000
H1239       H  0.66858953  0.67723074  0.35829844     0.08900
H1240       H  0.63278534  0.64016401  0.39172236     0.12500
H1241       H  0.64539744  0.74150596  0.38638827     0.12400
H1242       H  0.60826938  0.72769749  0.42386430     0.12200
H1243       H  0.57325664  0.69141780  0.45781604     0.12700
H1244       H  0.59480933  0.62600791  0.42935182     0.14700
C1245       C  0.52121736  0.63845594  0.53054170    -0.05400
C1246       C  0.54168810  0.66659203  0.54016613    -0.05300
C1247       C  0.53281717  0.68045440  0.55943055    -0.23500
C1248       C  0.50308009  0.66677586  0.56906220     0.18800
C1249       C  0.48225922  0.63839954  0.55964491     0.16000
C1250       C  0.49156071  0.62418694  0.54080766    -0.18500
C1251       C  0.95231722  0.62516267  0.56860601    -0.20300
C1252       C  0.94298199  0.64004496  0.58623334    -0.12900
C1253       C  0.96345813  0.66826277  0.59569501     0.03800
C1254       C  0.49365375  0.68131961  0.58735301    -0.25000
H1255       H  0.56465406  0.67807194  0.53253706     0.08900
H1256       H  0.54909798  0.70221928  0.56629763     0.12500
H1257       H  0.97546235  0.60271238  0.53319505     0.12400
H1258       H  0.93597255  0.60348306  0.56159753     0.12200
H1259       H  0.91961581  0.62940662  0.59250614     0.12700
H1260       H  0.50960614  0.70314566  0.59439745     0.14700
loop_ 
_geom_bond_atom_site_label_1 
_geom_bond_atom_site_label_2 
_geom_bond_distance 
_geom_bond_site_symmetry_2 
_ccdc_geom_bond_type 
C1            N2   1.355       .  A
C1            N6   1.363       .  A
C1          C300   1.483       .  S
N2            C3   1.355       .  A
C3            N4   1.359       .  A
C3          C292   1.486       .  S
N4            C5   1.365       .  A
C5            N6   1.365       .  A
C5          C268   1.485       .  S
C7            N8   1.363       .  A
C7           N12   1.359       .  A
C7          C244   1.479       .  S
N8            C9   1.361       .  A
C9           N10   1.357       .  A
C9          C220   1.479       .  S
N10          C11   1.358       .  A
C11          N12   1.357       .  A
C11         C890   1.476       .  S
C13          N14   1.364       .  A
C13          N18   1.358       .  A
C13         C212   1.486       .  S
N14          C15   1.362       .  A
C15          N16   1.358       .  A
C15         C276   1.482       .  S
N16          C17   1.357       .  A
C17          N18   1.356       .  A
C17         C188   1.478       .  S
O19          C22   1.278       .  A
O19         Cd24   2.479       .  S
C20         C204   1.478       .  S
C20          O29   1.269       .  A
C20          O25   1.278       .  A
O21          C27   1.278       .  A
O21         Cd24   2.471       .  S
C22         C172   1.478       .  S
C22          O30   1.270       .  A
C23         C308   1.481       .  S
C23          O28   1.277       .  A
C23          O26   1.270       .  A
Cd24         O31   2.388       .  S
Cd24         O30   2.379       .  S
Cd24         O29   2.383       .  S
Cd24         O25   2.489       .  S
Cd24         O28   2.472       .  S
Cd24         O26   2.413       .  S
C27         C236   1.480       .  S
C27          O31   1.270       .  A
C32          N33   1.360       .  A
C32          N37   1.357       .  A
C32         C164   1.476       .  S
N33          C34   1.357       .  A
C34          N35   1.355       .  A
C34         C132   1.477       .  S
N35          C36   1.357       .  A
C36          N37   1.358       .  A
C36         C140   1.476       .  S
C38          N43   1.364       .  A
C38         N354   1.359       .  A
C38         C116   1.485       .  S
N39          C40   1.355       .  A
N39         C353   1.359       .  A
C40         N356   1.355   1_545  A
C40         C124   1.472       .  S
N41          C42   1.359       .  A
N41         C355   1.355       .  A
C42          N43   1.364       .  A
C42         C100   1.488       .  S
O44          C47   1.275       .  A
O44         Cd49   2.510       .  S
C45          C92   1.479       .  S
C45          O54   1.266       .  A
C45          O50   1.274       .  A
O46          C52   1.272       .  A
O46         Cd49   2.461       .  S
C47         C284   1.487       .  S
C47          O55   1.265       .  A
C48         C148   1.471       .  S
C48          O53   1.272       .  A
C48          O51   1.266       .  A
Cd49         O56   2.396       .  S
Cd49         O55   2.429       .  S
Cd49         O54   2.423       .  S
Cd49         O50   2.501       .  S
Cd49         O53   2.473       .  S
Cd49         O51   2.375       .  S
C52         C196   1.469       .  S
C52          O56   1.268       .  A
C57          N58   1.358       .  A
C57         N377   1.359   1_545  A
C57          C84   1.478       .  S
N58          C59   1.358       .  A
C59          N60   1.360       .  A
C59         C180   1.480       .  S
N60         C376   1.358       .  A
C61          N62   1.358       .  A
C61         N375   1.359       .  A
C61         C228   1.484       .  S
N62         C372   1.360       .  A
O63          C66   1.276       .  A
O63         Cd68   2.508       .  S
C64         C108   1.482       .  S
C64          O69   1.274       .  A
C64         O388   1.267       .  A
O65          C71   1.272       .  A
O65        Cd383   2.470       .  S
C66         C252   1.477       .  S
C66          O74   1.266       .  A
C67         C156   1.470       .  S
C67          O72   1.273   1_554  A
C67          O70   1.267       .  A
Cd68         O75   2.397       .  S
Cd68         O74   2.369       .  S
Cd68         O69   2.485   1_556  S
Cd68        O380   2.481       .  S
Cd68        O388   2.415   1_556  S
Cd68        O387   2.470   1_556  S
Cd68        O385   2.392   1_556  S
O70        Cd383   2.384   1_554  S
C71          C76   1.475       .  S
C71         O390   1.267   1_545  A
O72        Cd383   2.472       .  S
O73         C379   1.267   1_545  A
O73        Cd383   2.410   1_554  S
O75         C386   1.267       .  A
C76          C77   1.404       .  A
C76          C81   1.405   1_545  A
C77          C78   1.400       .  A
C77          H86   1.083       .  S
C78          C79   1.405       .  A
C78          H87   1.083       .  S
C79          C85   1.405       .  A
C79          C80   1.413   1_545  A
C80          C82   1.400       .  A
C80          C81   1.398       .  A
C81          H88   1.085       .  S
C82          C83   1.394       .  A
C82          H89   1.084       .  S
C83          C84   1.405   1_565  A
C83          H90   1.083       .  S
C84          C85   1.408       .  A
C85          H91   1.084       .  S
C92          C93   1.404       .  A
C92          C97   1.406       .  A
C93          C94   1.402       .  A
C93         H102   1.083       .  S
C94          C95   1.405       .  A
C94         H103   1.083       .  S
C95         C101   1.409       .  A
C95          C96   1.414       .  A
C96          C98   1.400       .  A
C96          C97   1.404       .  A
C97         H104   1.084       .  S
C98          C99   1.396       .  A
C98         H105   1.084       .  S
C99         C100   1.409       .  A
C99         H106   1.083       .  S
C100        C101   1.409       .  A
C101        H107   1.084       .  S
C108        C109   1.404       .  A
C108        C113   1.407       .  A
C109        C110   1.401       .  A
C109        H118   1.083       .  S
C110        C111   1.404       .  A
C110        H119   1.083       .  S
C111        C117   1.408       .  A
C111        C112   1.413       .  A
C112        C114   1.400       .  A
C112        C113   1.403       .  A
C113        H120   1.084       .  S
C114        C115   1.395       .  A
C114        H121   1.084       .  S
C115        C116   1.408       .  A
C115        H122   1.083       .  S
C116        C117   1.408       .  A
C117        H123   1.084       .  S
C124        C125   1.403       .  A
C124        C129   1.404       .  A
C125        C126   1.397       .  A
C125        H449   1.084       .  S
C126        C127   1.403       .  A
C126        H450   1.082       .  S
C127        C133   1.403       .  A
C127        C128   1.414       .  A
C128        C130   1.402       .  A
C128        C129   1.403       .  A
C129        H136   1.083       .  S
C130        C131   1.397       .  A
C130        H137   1.082       .  S
C131        C762   1.404       .  A
C131        H768   1.084       .  S
C132        C761   1.404   1_455  A
C132        C763   1.407   1_455  A
C133        C762   1.407       .  A
C133        H139   1.083       .  S
H134        C440   1.084       .  S
H135        C441   1.082       .  S
H138        C761   1.084   1_455  S
C140        C141   1.406       .  A
C140        C145   1.408       .  A
C141        C142   1.391       .  A
C141        H150   1.083       .  S
C142        C143   1.399       .  A
C142        H151   1.084       .  S
C143        C149   1.395       .  A
C143        C144   1.412       .  A
C144        C146   1.405       .  A
C144        C145   1.402       .  A
C145        H152   1.084       .  S
C146        C147   1.400       .  A
C146        H153   1.083       .  S
C147        C148   1.403       .  A
C147        H154   1.083       .  S
C148        C149   1.403       .  A
C149        H155   1.085       .  S
C156        C157   1.404       .  A
C156        C161   1.405       .  A
C157        C158   1.390       .  A
C157        H166   1.084       .  S
C158        C159   1.398       .  A
C158        H167   1.082       .  S
C159        C165   1.397       .  A
C159        C160   1.415       .  A
C160        C162   1.404       .  A
C160        C161   1.407       .  A
C161        H168   1.082       .  S
C162        C163   1.401       .  A
C162        H169   1.082       .  S
C163        C164   1.406       .  A
C163        H170   1.084       .  S
C164        C165   1.402       .  A
C165        H171   1.082       .  S
C172        C173   1.404       .  A
C172        C177   1.406       .  A
C173        C174   1.402       .  A
C173        H182   1.084       .  S
C174        C175   1.406       .  A
C174        H183   1.082       .  S
C175        C181   1.406       .  A
C175        C176   1.412       .  A
C176        C178   1.401       .  A
C176        C177   1.400       .  A
C177        H184   1.083       .  S
C178        C179   1.395       .  A
C178        H185   1.083       .  S
C179        C180   1.405       .  A
C179        H186   1.083       .  S
C180        C181   1.410       .  A
C181        H187   1.083       .  S
C188        C189   1.406       .  A
C188        C193   1.407       .  A
C189        C190   1.394       .  A
C189        H198   1.082       .  S
C190        C191   1.400       .  A
C190        H199   1.086       .  S
C191        C197   1.398       .  A
C191        C192   1.414       .  A
C192        C194   1.404       .  A
C192        C193   1.403       .  A
C193        H200   1.086       .  S
C194        C195   1.399       .  A
C194        H201   1.085       .  S
C195        C196   1.403       .  A
C195        H202   1.083       .  S
C196        C197   1.403       .  A
C197        H203   1.086       .  S
C204        C205   1.406       .  A
C204        C209   1.405       .  A
C205        C206   1.393       .  A
C205        H214   1.084       .  S
C206        C207   1.398       .  A
C206        H215   1.083       .  S
C207        C213   1.403       .  A
C207        C208   1.415       .  A
C208        C210   1.401       .  A
C208        C209   1.410       .  A
C209        H216   1.083       .  S
C210        C211   1.399       .  A
C210        H217   1.083       .  S
C211        C212   1.410       .  A
C211        H218   1.083       .  S
C212        C213   1.404       .  A
C213        H219   1.083       .  S
C220        C221   1.404       .  A
C220        C225   1.407       .  A
C221        C222   1.400       .  A
C221        H230   1.083       .  S
C222        C223   1.404       .  A
C222        H231   1.082       .  S
C223        C229   1.407       .  A
C223        C224   1.414       .  A
C224        C226   1.403       .  A
C224        C225   1.406       .  A
C225        H232   1.084       .  S
C226        C227   1.399       .  A
C226        H548   1.083       .  S
C227        C228   1.406       .  A
C227        H549   1.084       .  S
C228        C229   1.408       .  A
C229        H235   1.083       .  S
H233        C541   1.083       .  S
H234        C542   1.084       .  S
C236        C237   1.407       .  A
C236        C241   1.406       .  A
C237        C238   1.395       .  A
C237        H246   1.084       .  S
C238        C239   1.399       .  A
C238        H247   1.081       .  S
C239        C245   1.404       .  A
C239        C240   1.415       .  A
C240        C242   1.402       .  A
C240        C241   1.408       .  A
C241        H878   1.081       .  S
C242        C243   1.399       .  A
C242        H879   1.081       .  S
C243        C244   1.406       .  A
C243        H880   1.084       .  S
C244        C245   1.404       .  A
C245        H251   1.082       .  S
H248        C871   1.081       .  S
H249        C872   1.081   1_455  S
H250        C873   1.084   1_455  S
C252        C253   1.406       .  A
C252        C257   1.407       .  A
C253        C254   1.390       .  A
C253        H577   1.084       .  S
C254        C255   1.397       .  A
C254        H263   1.082       .  S
C255        C261   1.399       .  A
C255        C256   1.415       .  A
C256        C258   1.404       .  A
C256        C257   1.410       .  A
C257        H264   1.083       .  S
C258        C259   1.401       .  A
C258        H265   1.082       .  S
C259        C260   1.406       .  A
C259        H896   1.083       .  S
C260        C641   1.476   1_455  S
C260        C261   1.402       .  A
C261        H267   1.083       .  S
H262        C568   1.084   1_545  S
H266        C889   1.083       .  S
C268        C269   1.405       .  A
C268        C273   1.410   1_455  A
C269        C900   1.396   1_455  A
C269        H908   1.083       .  S
C270        C899   1.396       .  A
C270        C586   1.400   1_545  A
C270        H279   1.083       .  S
C271        C277   1.403       .  A
C271        C585   1.400       .  A
C271       C1217   1.414       .  A
C272        C273   1.411       .  A
C272       C1216   1.414   1_545  A
C272        C589   1.406   1_545  A
C273        H280   1.083   1_655  S
C274        C275   1.404       .  A
C274        C587   1.406       .  A
C274        H281   1.083       .  S
C275        C906   1.405       .  A
C275        H282   1.083       .  S
C276        C277   1.405       .  A
C276        C905   1.405       .  A
C277        H283   1.084       .  S
H278        C899   1.083       .  S
C284        C285   1.409       .  A
C284        C289   1.404       .  A
C285        C286   1.400       .  A
C285        H294   1.084       .  S
C286        C287   1.402       .  A
C286        H295   1.083       .  S
C287        C293   1.411       .  A
C287        C288   1.416       .  A
C288        C290   1.399       .  A
C288        C289   1.408       .  A
C289        H296   1.083       .  S
C290        C291   1.395       .  A
C290        H297   1.083       .  S
C291        C292   1.408       .  A
C291        H298   1.083       .  S
C292        C293   1.408       .  A
C293        H299   1.083       .  S
C300        C301   1.408       .  A
C300        C305   1.406   1_455  A
C301        C302   1.396       .  A
C301        H310   1.083       .  S
C302        C303   1.399       .  A
C302        H311   1.085       .  S
C303        C309   1.407   1_455  A
C303        C304   1.416   1_455  A
C304        C305   1.409       .  A
C304        C936   1.401       .  A
C305        H942   1.085       .  S
C306        C307   1.398       .  A
C306        C934   1.401       .  A
C306        H313   1.085       .  S
C307        C308   1.407       .  A
C307        H314   1.083       .  S
C308        C939   1.404       .  A
C309        C938   1.404       .  A
C309        H315   1.085   1_655  S
H312        C935   1.085       .  S
C316        N317   1.356       .  A
C316        N321   1.363       .  A
C316        C615   1.483       .  S
N317        C318   1.355       .  A
C318        N319   1.359       .  A
C318        C607   1.486       .  S
N319        C320   1.365       .  A
C320        N321   1.365       .  A
C320        C583   1.486       .  S
C322        N323   1.364       .  A
C322        N327   1.358       .  A
C322        C559   1.479       .  S
N323        C324   1.362       .  A
C324        N325   1.357       .  A
C324        C535   1.480       .  S
N325        C326   1.356       .  A
C326        N327   1.355       .  A
C326       C1205   1.475       .  S
C328        N329   1.364       .  A
C328        N333   1.358       .  A
C328        C527   1.486       .  S
N329        C330   1.362       .  A
C330        N331   1.357       .  A
C330        C591   1.482       .  S
N331        C332   1.356       .  A
C332        N333   1.356       .  A
C332        C503   1.476       .  S
O334        C337   1.278       .  A
O334       Cd339   2.483       .  S
C335        C519   1.479       .  S
C335        O344   1.269       .  A
C335        O340   1.278       .  A
O336        C342   1.278       .  A
O336       Cd339   2.474       .  S
C337        C487   1.480       .  S
C337        O345   1.270       .  A
C338        C623   1.481       .  S
C338        O343   1.277       .  A
C338        O341   1.270       .  A
Cd339       O346   2.380       .  S
Cd339       O345   2.388       .  S
Cd339       O344   2.392       .  S
Cd339       O340   2.494       .  S
Cd339       O343   2.477       .  S
Cd339       O341   2.405       .  S
C342        C551   1.480       .  S
C342        O346   1.270       .  A
C347        N348   1.358       .  A
C347        N352   1.355       .  A
C347        C479   1.474       .  S
N348        C349   1.357       .  A
C349        N350   1.357       .  A
C349        C447   1.477       .  S
N350        C351   1.358       .  A
C351        N352   1.357       .  A
C351        C455   1.473       .  S
C353        N358   1.363   1_545  A
C353        C431   1.486       .  S
N354        C355   1.354       .  A
C355        C439   1.469       .  S
N356        C357   1.360       .  A
C357        N358   1.363       .  A
C357        C415   1.486       .  S
O359        C362   1.275       .  A
O359       Cd364   2.498       .  S
C360        C407   1.479       .  S
C360        O369   1.267       .  A
C360        O365   1.275       .  A
O361        C367   1.272       .  A
O361       Cd364   2.460       .  S
C362        C599   1.486       .  S
C362        O370   1.266       .  A
C363        C463   1.470       .  S
C363        O368   1.273       .  A
C363        O366   1.266       .  A
Cd364       O371   2.391       .  S
Cd364       O370   2.433       .  S
Cd364       O369   2.412       .  S
Cd364       O365   2.503       .  S
Cd364       O368   2.465       .  S
Cd364       O366   2.365       .  S
C367        C511   1.469       .  S
C367        O371   1.268       .  A
C372        N373   1.359       .  A
C372        C399   1.482       .  S
N373        C374   1.360       .  A
C374        N375   1.361       .  A
C374        C495   1.481       .  S
C376        N377   1.357   1_545  A
C376        C543   1.476   1_545  S
O378        C381   1.275       .  A
O378       Cd383   2.509   1_565  S
C379        C423   1.482       .  S
C379        O384   1.274       .  A
O380        C386   1.273       .  A
C381        C567   1.478       .  S
C381        O389   1.265       .  A
C382        C471   1.470       .  S
C382        O387   1.273       .  A
C382        O385   1.267       .  A
Cd383       O390   2.400   1_545  S
Cd383       O389   2.376   1_545  S
Cd383       O384   2.490   1_546  S
C386        C391   1.477       .  S
C391        C392   1.405       .  A
C391        C396   1.404       .  A
C392        C393   1.402       .  A
C392        H401   1.083       .  S
C393        C394   1.406       .  A
C393        H402   1.083       .  S
C394        C400   1.407       .  A
C394        C395   1.413       .  A
C395        C397   1.400       .  A
C395        C396   1.399       .  A
C396        H403   1.084       .  S
C397        C398   1.393       .  A
C397        H404   1.084       .  S
C398        C399   1.406       .  A
C398        H405   1.083       .  S
C399        C400   1.410       .  A
C400        H406   1.084       .  S
C407        C408   1.404       .  A
C407        C412   1.405       .  A
C408        C409   1.403       .  A
C408        H417   1.083       .  S
C409        C410   1.406       .  A
C409        H418   1.083       .  S
C410        C416   1.409       .  A
C410        C411   1.413       .  A
C411        C413   1.400       .  A
C411        C412   1.403       .  A
C412        H419   1.085       .  S
C413        C414   1.395       .  A
C413        H420   1.084       .  S
C414        C415   1.408       .  A
C414        H421   1.083       .  S
C415        C416   1.409       .  A
C416        H422   1.084       .  S
C423        C424   1.405       .  A
C423        C428   1.407   1_565  A
C424        C425   1.402       .  A
C424        H433   1.083       .  S
C425        C426   1.405       .  A
C425        H434   1.083       .  S
C426        C432   1.409       .  A
C426        C427   1.413   1_565  A
C427        C429   1.400       .  A
C427        C428   1.402       .  A
C428        H435   1.084       .  S
C429        C430   1.394       .  A
C429        H436   1.084       .  S
C430        C431   1.408       .  A
C430        H437   1.083       .  S
C431        C432   1.409   1_545  A
C432        H438   1.084       .  S
C439        C440   1.402       .  A
C439        C444   1.403       .  A
C440        C441   1.398       .  A
C441        C442   1.403       .  A
C442        C448   1.403       .  A
C442        C443   1.414       .  A
C443        C445   1.401       .  A
C443        C444   1.402       .  A
C444        H451   1.083       .  S
C445        C446   1.396       .  A
C445        H452   1.082       .  S
C446       C1077   1.405       .  A
C446       H1083   1.084       .  S
C447       C1076   1.405   1_455  A
C447       C1078   1.407   1_455  A
C448       C1077   1.407       .  A
C448        H454   1.082       .  S
H453       C1076   1.084   1_455  S
C455        C456   1.404       .  A
C455        C460   1.407       .  A
C456        C457   1.392       .  A
C456        H465   1.083       .  S
C457        C458   1.400       .  A
C457        H466   1.084       .  S
C458        C464   1.394       .  A
C458        C459   1.412       .  A
C459        C461   1.404       .  A
C459        C460   1.400       .  A
C460        H467   1.084       .  S
C461        C462   1.399       .  A
C461        H468   1.083       .  S
C462        C463   1.403       .  A
C462        H469   1.083       .  S
C463        C464   1.404       .  A
C464        H470   1.084       .  S
C471        C472   1.404       .  A
C471        C476   1.404       .  A
C472        C473   1.392       .  A
C472        H481   1.084       .  S
C473        C474   1.399       .  A
C473        H482   1.082       .  S
C474        C480   1.398       .  A
C474        C475   1.415       .  A
C475        C477   1.403       .  A
C475        C476   1.405       .  A
C476        H483   1.082       .  S
C477        C478   1.399       .  A
C477        H484   1.082       .  S
C478        C479   1.406       .  A
C478        H485   1.084       .  S
C479        C480   1.402       .  A
C480        H486   1.082       .  S
C487        C488   1.404       .  A
C487        C492   1.407       .  A
C488        C489   1.403       .  A
C488        H497   1.084       .  S
C489        C490   1.406       .  A
C489        H498   1.082       .  S
C490        C496   1.408       .  A
C490        C491   1.412       .  A
C491        C493   1.402       .  A
C491        C492   1.401       .  A
C492        H499   1.083       .  S
C493        C494   1.396       .  A
C493        H500   1.082       .  S
C494        C495   1.405       .  A
C494        H501   1.084       .  S
C495        C496   1.410       .  A
C496        H502   1.083       .  S
C503        C504   1.406       .  A
C503        C508   1.407       .  A
C504        C505   1.394       .  A
C504        H513   1.082       .  S
C505        C506   1.400       .  A
C505        H514   1.086       .  S
C506        C512   1.398       .  A
C506        C507   1.414       .  A
C507        C509   1.404       .  A
C507        C508   1.402       .  A
C508        H515   1.086       .  S
C509        C510   1.398       .  A
C509        H516   1.085       .  S
C510        C511   1.403       .  A
C510        H517   1.083       .  S
C511        C512   1.403       .  A
C512        H518   1.086       .  S
C519        C520   1.406       .  A
C519        C524   1.405       .  A
C520        C521   1.394       .  A
C520        H529   1.084       .  S
C521        C522   1.399       .  A
C521        H530   1.083       .  S
C522        C528   1.405       .  A
C522        C523   1.415       .  A
C523        C525   1.401       .  A
C523        C524   1.410       .  A
C524        H531   1.083       .  S
C525        C526   1.399       .  A
C525        H532   1.083       .  S
C526        C527   1.410       .  A
C526        H533   1.083       .  S
C527        C528   1.405       .  A
C528        H534   1.083       .  S
C535        C536   1.404       .  A
C535        C540   1.408       .  A
C536        C537   1.400       .  A
C536        H545   1.083       .  S
C537        C538   1.404       .  A
C537        H546   1.082       .  S
C538        C544   1.404       .  A
C538        C539   1.413       .  A
C539        C541   1.403       .  A
C539        C540   1.403       .  A
C540        H547   1.084       .  S
C541        C542   1.398       .  A
C542        C543   1.404       .  A
C543        C544   1.406       .  A
C544        H550   1.083       .  S
C551        C552   1.407       .  A
C551        C556   1.406       .  A
C552        C553   1.394       .  A
C552        H561   1.084       .  S
C553        C554   1.399       .  A
C553        H562   1.081       .  S
C554        C560   1.404       .  A
C554        C555   1.415       .  A
C555        C557   1.402       .  A
C555        C556   1.408       .  A
C556       H1193   1.081       .  S
C557        C558   1.398       .  A
C557       H1194   1.081       .  S
C558        C559   1.407       .  A
C558       H1195   1.084       .  S
C559        C560   1.403       .  A
C560        H566   1.081       .  S
H563       C1186   1.081       .  S
H564       C1187   1.081   1_455  S
H565       C1188   1.084   1_455  S
C567        C568   1.407       .  A
C567        C572   1.406       .  A
C568        C569   1.391       .  A
C569        C570   1.397       .  A
C569        H578   1.082       .  S
C570        C576   1.399       .  A
C570        C571   1.415       .  A
C571        C573   1.403       .  A
C571        C572   1.409       .  A
C572        H579   1.083       .  S
C573        C574   1.400       .  A
C573        H580   1.082       .  S
C574        C575   1.405       .  A
C574       H1211   1.083       .  S
C575        C956   1.475   1_455  S
C575        C576   1.402       .  A
C576        H582   1.083       .  S
H581       C1204   1.083       .  S
C583        C584   1.406       .  A
C583        C588   1.411   1_455  A
C584       C1215   1.395   1_455  A
C584       H1223   1.083       .  S
C585       C1214   1.395       .  A
C585        H594   1.083       .  S
C586        C592   1.403       .  A
C586        C902   1.414   1_565  A
C587        C901   1.414       .  A
C587        C588   1.412       .  A
C588        H595   1.083   1_655  S
C589        C590   1.403       .  A
C589        H596   1.083       .  S
C590       C1221   1.405       .  A
C590        H597   1.083       .  S
C591       C1220   1.405       .  A
C591        C592   1.406       .  A
C592        H598   1.084       .  S
H593       C1214   1.083       .  S
C599        C600   1.409       .  A
C599        C604   1.404       .  A
C600        C601   1.401       .  A
C600        H609   1.084       .  S
C601        C602   1.402       .  A
C601        H610   1.083       .  S
C602        C608   1.411       .  A
C602        C603   1.415       .  A
C603        C605   1.399       .  A
C603        C604   1.407       .  A
C604        H611   1.083       .  S
C605        C606   1.395       .  A
C605        H612   1.083       .  S
C606        C607   1.407       .  A
C606        H613   1.083       .  S
C607        C608   1.409       .  A
C608        H614   1.083       .  S
C615        C616   1.407       .  A
C615        C620   1.405   1_455  A
C616        C617   1.397       .  A
C616        H625   1.083       .  S
C617        C618   1.400       .  A
C617        H626   1.084       .  S
C618        C624   1.408   1_455  A
C618        C619   1.416   1_455  A
C619       C1251   1.401       .  A
C619        C620   1.409       .  A
C620       H1257   1.085       .  S
C621       C1249   1.401       .  A
C621        C622   1.397       .  A
C621        H628   1.085       .  S
C622        C623   1.407       .  A
C622        H629   1.083       .  S
C623       C1254   1.404       .  A
C624       C1253   1.404       .  A
C624        H630   1.085   1_655  S
H627       C1250   1.085       .  S
C631        N632   1.355       .  A
C631        N636   1.363       .  A
C631        C930   1.483       .  S
N632        C633   1.355       .  A
C633        N634   1.359       .  A
C633        C922   1.486       .  S
N634        C635   1.365       .  A
C635        N636   1.365       .  A
C635        C898   1.485       .  S
C637        N638   1.363       .  A
C637        N642   1.359       .  A
C637        C874   1.479       .  S
N638        C639   1.361       .  A
C639        N640   1.357       .  A
C639        C850   1.479       .  S
N640        C641   1.358       .  A
C641        N642   1.357       .  A
C643        N644   1.364       .  A
C643        N648   1.358       .  A
C643        C842   1.486       .  S
N644        C645   1.362       .  A
C645        N646   1.358       .  A
C645        C906   1.482       .  S
N646        C647   1.357       .  A
C647        N648   1.356       .  A
C647        C818   1.478       .  S
O649        C652   1.278       .  A
O649       Cd654   2.479       .  S
C650        C834   1.478       .  S
C650        O659   1.269       .  A
C650        O655   1.278       .  A
O651        C657   1.278       .  A
O651       Cd654   2.471       .  S
C652        C802   1.478       .  S
C652        O660   1.270       .  A
C653        C938   1.481       .  S
C653        O658   1.277       .  A
C653        O656   1.270       .  A
Cd654       O661   2.388       .  S
Cd654       O660   2.379       .  S
Cd654       O659   2.383       .  S
Cd654       O655   2.489       .  S
Cd654       O658   2.472       .  S
Cd654       O656   2.413       .  S
C657        C866   1.480       .  S
C657        O661   1.270       .  A
C662        N663   1.360       .  A
C662        N667   1.357       .  A
C662        C794   1.476       .  S
N663        C664   1.357       .  A
C664        N665   1.355       .  A
C664        C762   1.477       .  S
N665        C666   1.357       .  A
C666        N667   1.358       .  A
C666        C770   1.476       .  S
C668        N984   1.359       .  A
C668        N673   1.364       .  A
C668        C746   1.485       .  S
N669        C983   1.359       .  A
N669        C670   1.355       .  A
C670        N986   1.355   1_545  A
C670        C754   1.472       .  S
N671        C985   1.355       .  A
N671        C672   1.359       .  A
C672        N673   1.364       .  A
C672        C730   1.488       .  S
O674        C677   1.275       .  A
O674       Cd679   2.510       .  S
C675        C722   1.479       .  S
C675        O684   1.266       .  A
C675        O680   1.274       .  A
O676        C682   1.272       .  A
O676       Cd679   2.461       .  S
C677        C914   1.487       .  S
C677        O685   1.265       .  A
C678        C778   1.471       .  S
C678        O683   1.272       .  A
C678        O681   1.266       .  A
Cd679       O686   2.396       .  S
Cd679       O685   2.429       .  S
Cd679       O684   2.423       .  S
Cd679       O680   2.501       .  S
Cd679       O683   2.473       .  S
Cd679       O681   2.375       .  S
C682        C826   1.469       .  S
C682        O686   1.268       .  A
C687        N688   1.358       .  A
C687       N1007   1.359   1_545  A
C687        C714   1.478       .  S
N688        C689   1.358       .  A
C689        N690   1.360       .  A
C689        C810   1.480       .  S
N690       C1006   1.358       .  A
C691       N1005   1.359       .  A
C691        N692   1.358       .  A
C691        C858   1.484       .  S
N692       C1002   1.360       .  A
O693        C696   1.276       .  A
O693       Cd698   2.508       .  S
C694        C738   1.482       .  S
C694       O1018   1.267       .  A
C694        O699   1.274       .  A
O695        C701   1.272       .  A
O695      Cd1013   2.470       .  S
C696        C882   1.477       .  S
C696        O704   1.266       .  A
C697        C786   1.470       .  S
C697        O702   1.273   1_554  A
C697        O700   1.267       .  A
Cd698      O1010   2.481       .  S
Cd698       O705   2.397       .  S
Cd698       O704   2.369       .  S
Cd698      O1018   2.415   1_556  S
Cd698       O699   2.485   1_556  S
Cd698      O1017   2.470   1_556  S
Cd698      O1015   2.392   1_556  S
O700      Cd1013   2.384   1_554  S
C701        C706   1.475       .  S
C701       O1020   1.267   1_545  A
O702      Cd1013   2.472       .  S
O703       C1009   1.267   1_545  A
O703      Cd1013   2.410   1_554  S
O705       C1016   1.267       .  A
C706        C707   1.404       .  A
C706        C711   1.405   1_545  A
C707        C708   1.400       .  A
C707        H716   1.083       .  S
C708        C709   1.405       .  A
C708        H717   1.083       .  S
C709        C715   1.405       .  A
C709        C710   1.413   1_545  A
C710        C712   1.400       .  A
C710        C711   1.398       .  A
C711        H718   1.085       .  S
C712        C713   1.394       .  A
C712        H719   1.084       .  S
C713        C714   1.405   1_565  A
C713        H720   1.083       .  S
C714        C715   1.408       .  A
C715        H721   1.084       .  S
C722        C723   1.404       .  A
C722        C727   1.406       .  A
C723        C724   1.402       .  A
C723        H732   1.083       .  S
C724        C725   1.405       .  A
C724        H733   1.083       .  S
C725        C731   1.409       .  A
C725        C726   1.414       .  A
C726        C728   1.400       .  A
C726        C727   1.404       .  A
C727        H734   1.084       .  S
C728        C729   1.396       .  A
C728        H735   1.084       .  S
C729        C730   1.409       .  A
C729        H736   1.083       .  S
C730        C731   1.409       .  A
C731        H737   1.084       .  S
C738        C739   1.404       .  A
C738        C743   1.407       .  A
C739        C740   1.401       .  A
C739        H748   1.083       .  S
C740        C741   1.404       .  A
C740        H749   1.083       .  S
C741        C747   1.408       .  A
C741        C742   1.413       .  A
C742        C744   1.400       .  A
C742        C743   1.403       .  A
C743        H750   1.084       .  S
C744        C745   1.395       .  A
C744        H751   1.084       .  S
C745        C746   1.408       .  A
C745        H752   1.083       .  S
C746        C747   1.408       .  A
C747        H753   1.084       .  S
C754        C755   1.403       .  A
C754        C759   1.404       .  A
C755        C756   1.397       .  A
C755       H1079   1.084       .  S
C756        C757   1.403       .  A
C756       H1080   1.082       .  S
C757        C763   1.403       .  A
C757        C758   1.414       .  A
C758        C760   1.402       .  A
C758        C759   1.403       .  A
C759        H766   1.083       .  S
C760        C761   1.397       .  A
C760        H767   1.082       .  S
C763        H769   1.083   1_655  S
H764       C1070   1.084       .  S
H765       C1071   1.082       .  S
C770        C771   1.406       .  A
C770        C775   1.408       .  A
C771        C772   1.391       .  A
C771        H780   1.083       .  S
C772        C773   1.399       .  A
C772        H781   1.084       .  S
C773        C779   1.395       .  A
C773        C774   1.412       .  A
C774        C776   1.405       .  A
C774        C775   1.402       .  A
C775        H782   1.084       .  S
C776        C777   1.400       .  A
C776        H783   1.083       .  S
C777        C778   1.403       .  A
C777        H784   1.083       .  S
C778        C779   1.403       .  A
C779        H785   1.085       .  S
C786        C787   1.404       .  A
C786        C791   1.405       .  A
C787        C788   1.390       .  A
C787        H796   1.085       .  S
C788        C789   1.398       .  A
C788        H797   1.082       .  S
C789        C795   1.397       .  A
C789        C790   1.415       .  A
C790        C792   1.404       .  A
C790        C791   1.407       .  A
C791        H798   1.082       .  S
C792        C793   1.401       .  A
C792        H799   1.082       .  S
C793        C794   1.406       .  A
C793        H800   1.084       .  S
C794        C795   1.402       .  A
C795        H801   1.082       .  S
C802        C803   1.404       .  A
C802        C807   1.406       .  A
C803        C804   1.402       .  A
C803        H812   1.084       .  S
C804        C805   1.406       .  A
C804        H813   1.082       .  S
C805        C811   1.406       .  A
C805        C806   1.412       .  A
C806        C808   1.401       .  A
C806        C807   1.400       .  A
C807        H814   1.083       .  S
C808        C809   1.395       .  A
C808        H815   1.083       .  S
C809        C810   1.405       .  A
C809        H816   1.083       .  S
C810        C811   1.410       .  A
C811        H817   1.083       .  S
C818        C819   1.406       .  A
C818        C823   1.407       .  A
C819        C820   1.394       .  A
C819        H828   1.082       .  S
C820        C821   1.400       .  A
C820        H829   1.086       .  S
C821        C827   1.398       .  A
C821        C822   1.414       .  A
C822        C824   1.404       .  A
C822        C823   1.403       .  A
C823        H830   1.086       .  S
C824        C825   1.399       .  A
C824        H831   1.085       .  S
C825        C826   1.403       .  A
C825        H832   1.083       .  S
C826        C827   1.403       .  A
C827        H833   1.086       .  S
C834        C835   1.406       .  A
C834        C839   1.405       .  A
C835        C836   1.393       .  A
C835        H844   1.084       .  S
C836        C837   1.398       .  A
C836        H845   1.083       .  S
C837        C843   1.403       .  A
C837        C838   1.415       .  A
C838        C840   1.401       .  A
C838        C839   1.410       .  A
C839        H846   1.083       .  S
C840        C841   1.399       .  A
C840        H847   1.083       .  S
C841        C842   1.410       .  A
C841        H848   1.083       .  S
C842        C843   1.404       .  A
C843        H849   1.083       .  S
C850        C851   1.404       .  A
C850        C855   1.407       .  A
C851        C852   1.400       .  A
C851        H860   1.083       .  S
C852        C853   1.404       .  A
C852        H861   1.082       .  S
C853        C859   1.407       .  A
C853        C854   1.414       .  A
C854        C856   1.403       .  A
C854        C855   1.406       .  A
C855        H862   1.084       .  S
C856        C857   1.399       .  A
C856       H1178   1.083       .  S
C857        C858   1.406       .  A
C857       H1179   1.084       .  S
C858        C859   1.408       .  A
C859        H865   1.083       .  S
H863       C1171   1.083       .  S
H864       C1172   1.084       .  S
C866        C867   1.407       .  A
C866        C871   1.406       .  A
C867        C868   1.395       .  A
C867        H876   1.084       .  S
C868        C869   1.399       .  A
C868        H877   1.081       .  S
C869        C875   1.404       .  A
C869        C870   1.415       .  A
C870        C872   1.402       .  A
C870        C871   1.408       .  A
C872        C873   1.399       .  A
C873        C874   1.406       .  A
C874        C875   1.404       .  A
C875        H881   1.082       .  S
C882        C883   1.406       .  A
C882        C887   1.407       .  A
C883        C884   1.390       .  A
C883       H1207   1.084       .  S
C884        C885   1.397       .  A
C884        H893   1.082       .  S
C885        C891   1.399       .  A
C885        C886   1.415       .  A
C886        C888   1.404       .  A
C886        C887   1.410       .  A
C887        H894   1.083       .  S
C888        C889   1.401       .  A
C888        H895   1.082       .  S
C889        C890   1.406       .  A
C890        C891   1.402       .  A
C891        H897   1.083       .  S
H892       C1198   1.084   1_545  S
C898        C899   1.405       .  A
C898        C903   1.410       .  A
C900       C1216   1.400   1_545  A
C900        H909   1.083       .  S
C901       C1215   1.400       .  A
C901        C907   1.403       .  A
C902       C1219   1.406   1_545  A
C902        C903   1.411       .  A
C903        H910   1.083       .  S
C904       C1217   1.406       .  A
C904        C905   1.404       .  A
C904        H911   1.083       .  S
C905        H912   1.083       .  S
C906        C907   1.405       .  A
C907        H913   1.084       .  S
C914        C915   1.409       .  A
C914        C919   1.404       .  A
C915        C916   1.400       .  A
C915        H924   1.084       .  S
C916        C917   1.402       .  A
C916        H925   1.083       .  S
C917        C923   1.411       .  A
C917        C918   1.416       .  A
C918        C920   1.399       .  A
C918        C919   1.408       .  A
C919        H926   1.083       .  S
C920        C921   1.395       .  A
C920        H927   1.083       .  S
C921        C922   1.408       .  A
C921        H928   1.083       .  S
C922        C923   1.408       .  A
C923        H929   1.083       .  S
C930        C931   1.408       .  A
C930        C935   1.406       .  A
C931        C932   1.396       .  A
C931        H940   1.083       .  S
C932        C933   1.399       .  A
C932        H941   1.085       .  S
C933        C939   1.407       .  A
C933        C934   1.416       .  A
C934        C935   1.409       .  A
C936        C937   1.398       .  A
C936        H943   1.085       .  S
C937        C938   1.407       .  A
C937        H944   1.083       .  S
C939        H945   1.085       .  S
C946        N947   1.356       .  A
C946        N951   1.363       .  A
C946       C1245   1.483       .  S
N947        C948   1.355       .  A
C948        N949   1.359       .  A
C948       C1237   1.486       .  S
N949        C950   1.365       .  A
C950        N951   1.365       .  A
C950       C1213   1.486       .  S
C952        N953   1.364       .  A
C952        N957   1.358       .  A
C952       C1189   1.479       .  S
N953        C954   1.362       .  A
C954        N955   1.357       .  A
C954       C1165   1.480       .  S
N955        C956   1.356       .  A
C956        N957   1.355       .  A
C958        N959   1.364       .  A
C958        N963   1.358       .  A
C958       C1157   1.486       .  S
N959        C960   1.362       .  A
C960        N961   1.357       .  A
C960       C1221   1.482       .  S
N961        C962   1.356       .  A
C962        N963   1.356       .  A
C962       C1133   1.476       .  S
O964        C967   1.278       .  A
O964       Cd969   2.483       .  S
C965       C1149   1.479       .  S
C965        O974   1.269       .  A
C965        O970   1.278       .  A
O966        C972   1.278       .  A
O966       Cd969   2.474       .  S
C967       C1117   1.480       .  S
C967        O975   1.270       .  A
C968       C1253   1.481       .  S
C968        O973   1.277       .  A
C968        O971   1.270       .  A
Cd969       O976   2.380       .  S
Cd969       O975   2.388       .  S
Cd969       O974   2.392       .  S
Cd969       O970   2.494       .  S
Cd969       O973   2.477       .  S
Cd969       O971   2.405       .  S
C972       C1181   1.480       .  S
C972        O976   1.270       .  A
C977        N978   1.358       .  A
C977        N982   1.355       .  A
C977       C1109   1.474       .  S
N978        C979   1.357       .  A
C979        N980   1.357       .  A
C979       C1077   1.477       .  S
N980        C981   1.358       .  A
C981        N982   1.357       .  A
C981       C1085   1.473       .  S
C983        N988   1.363   1_545  A
C983       C1061   1.486       .  S
N984        C985   1.354       .  A
C985       C1069   1.469       .  S
N986        C987   1.360       .  A
C987        N988   1.363       .  A
C987       C1045   1.486       .  S
O989        C992   1.275       .  A
O989       Cd994   2.498       .  S
C990       C1037   1.479       .  S
C990        O999   1.267       .  A
C990        O995   1.275       .  A
O991        C997   1.272       .  A
O991       Cd994   2.460       .  S
C992       C1229   1.486       .  S
C992       O1000   1.266       .  A
C993       C1093   1.470       .  S
C993        O998   1.273       .  A
C993        O996   1.266       .  A
Cd994      O1001   2.391       .  S
Cd994      O1000   2.433       .  S
Cd994       O999   2.412       .  S
Cd994       O995   2.503       .  S
Cd994       O998   2.465       .  S
Cd994       O996   2.365       .  S
C997       C1141   1.469       .  S
C997       O1001   1.268       .  A
C1002      N1003   1.359       .  A
C1002      C1029   1.482       .  S
N1003      C1004   1.360       .  A
C1004      N1005   1.361       .  A
C1004      C1125   1.481       .  S
C1006      N1007   1.357   1_545  A
C1006      C1173   1.476   1_545  S
O1008      C1011   1.275       .  A
O1008     Cd1013   2.509   1_565  S
C1009      C1053   1.482       .  S
C1009      O1014   1.274       .  A
O1010      C1016   1.273       .  A
C1011      C1197   1.478       .  S
C1011      O1019   1.265       .  A
C1012      C1101   1.470       .  S
C1012      O1017   1.273       .  A
C1012      O1015   1.267       .  A
Cd1013     O1020   2.400   1_545  S
Cd1013     O1019   2.376   1_545  S
Cd1013     O1014   2.490   1_546  S
C1016      C1021   1.477       .  S
C1021      C1022   1.405       .  A
C1021      C1026   1.404       .  A
C1022      C1023   1.402       .  A
C1022      H1031   1.083       .  S
C1023      C1024   1.406       .  A
C1023      H1032   1.083       .  S
C1024      C1030   1.407       .  A
C1024      C1025   1.413       .  A
C1025      C1027   1.400       .  A
C1025      C1026   1.399       .  A
C1026      H1033   1.084       .  S
C1027      C1028   1.393       .  A
C1027      H1034   1.084       .  S
C1028      C1029   1.406       .  A
C1028      H1035   1.083       .  S
C1029      C1030   1.410       .  A
C1030      H1036   1.084       .  S
C1037      C1038   1.404       .  A
C1037      C1042   1.405       .  A
C1038      C1039   1.403       .  A
C1038      H1047   1.083       .  S
C1039      C1040   1.406       .  A
C1039      H1048   1.083       .  S
C1040      C1046   1.409       .  A
C1040      C1041   1.413       .  A
C1041      C1043   1.400       .  A
C1041      C1042   1.403       .  A
C1042      H1049   1.085       .  S
C1043      C1044   1.395       .  A
C1043      H1050   1.084       .  S
C1044      C1045   1.408       .  A
C1044      H1051   1.083       .  S
C1045      C1046   1.409       .  A
C1046      H1052   1.084       .  S
C1053      C1054   1.405       .  A
C1053      C1058   1.407   1_565  A
C1054      C1055   1.402       .  A
C1054      H1063   1.083       .  S
C1055      C1056   1.405       .  A
C1055      H1064   1.083       .  S
C1056      C1062   1.409       .  A
C1056      C1057   1.413   1_565  A
C1057      C1059   1.400       .  A
C1057      C1058   1.402       .  A
C1058      H1065   1.084       .  S
C1059      C1060   1.394       .  A
C1059      H1066   1.084       .  S
C1060      C1061   1.408       .  A
C1060      H1067   1.083       .  S
C1061      C1062   1.409   1_545  A
C1062      H1068   1.084       .  S
C1069      C1070   1.402       .  A
C1069      C1074   1.403       .  A
C1070      C1071   1.398       .  A
C1071      C1072   1.403       .  A
C1072      C1078   1.403       .  A
C1072      C1073   1.414       .  A
C1073      C1075   1.401       .  A
C1073      C1074   1.402       .  A
C1074      H1081   1.083       .  S
C1075      C1076   1.396       .  A
C1075      H1082   1.082       .  S
C1078      H1084   1.082   1_655  S
C1085      C1086   1.404       .  A
C1085      C1090   1.407       .  A
C1086      C1087   1.392       .  A
C1086      H1095   1.083       .  S
C1087      C1088   1.400       .  A
C1087      H1096   1.084       .  S
C1088      C1094   1.394       .  A
C1088      C1089   1.412       .  A
C1089      C1091   1.404       .  A
C1089      C1090   1.400       .  A
C1090      H1097   1.084       .  S
C1091      C1092   1.399       .  A
C1091      H1098   1.083       .  S
C1092      C1093   1.403       .  A
C1092      H1099   1.083       .  S
C1093      C1094   1.404       .  A
C1094      H1100   1.084       .  S
C1101      C1102   1.404       .  A
C1101      C1106   1.404       .  A
C1102      C1103   1.392       .  A
C1102      H1111   1.084       .  S
C1103      C1104   1.399       .  A
C1103      H1112   1.082       .  S
C1104      C1110   1.398       .  A
C1104      C1105   1.415       .  A
C1105      C1107   1.403       .  A
C1105      C1106   1.405       .  A
C1106      H1113   1.082       .  S
C1107      C1108   1.399       .  A
C1107      H1114   1.082       .  S
C1108      C1109   1.406       .  A
C1108      H1115   1.084       .  S
C1109      C1110   1.402       .  A
C1110      H1116   1.082       .  S
C1117      C1118   1.404       .  A
C1117      C1122   1.407       .  A
C1118      C1119   1.403       .  A
C1118      H1127   1.084       .  S
C1119      C1120   1.406       .  A
C1119      H1128   1.082       .  S
C1120      C1126   1.408       .  A
C1120      C1121   1.412       .  A
C1121      C1123   1.402       .  A
C1121      C1122   1.401       .  A
C1122      H1129   1.083       .  S
C1123      C1124   1.396       .  A
C1123      H1130   1.082       .  S
C1124      C1125   1.405       .  A
C1124      H1131   1.084       .  S
C1125      C1126   1.410       .  A
C1126      H1132   1.083       .  S
C1133      C1134   1.406       .  A
C1133      C1138   1.407       .  A
C1134      C1135   1.394       .  A
C1134      H1143   1.082       .  S
C1135      C1136   1.400       .  A
C1135      H1144   1.086       .  S
C1136      C1142   1.398       .  A
C1136      C1137   1.414       .  A
C1137      C1139   1.404       .  A
C1137      C1138   1.402       .  A
C1138      H1145   1.086       .  S
C1139      C1140   1.398       .  A
C1139      H1146   1.085       .  S
C1140      C1141   1.403       .  A
C1140      H1147   1.083       .  S
C1141      C1142   1.403       .  A
C1142      H1148   1.086       .  S
C1149      C1150   1.406       .  A
C1149      C1154   1.405       .  A
C1150      C1151   1.394       .  A
C1150      H1159   1.084       .  S
C1151      C1152   1.399       .  A
C1151      H1160   1.083       .  S
C1152      C1158   1.405       .  A
C1152      C1153   1.415       .  A
C1153      C1155   1.401       .  A
C1153      C1154   1.410       .  A
C1154      H1161   1.083       .  S
C1155      C1156   1.399       .  A
C1155      H1162   1.083       .  S
C1156      C1157   1.410       .  A
C1156      H1163   1.083       .  S
C1157      C1158   1.405       .  A
C1158      H1164   1.083       .  S
C1165      C1166   1.404       .  A
C1165      C1170   1.408       .  A
C1166      C1167   1.400       .  A
C1166      H1175   1.083       .  S
C1167      C1168   1.404       .  A
C1167      H1176   1.082       .  S
C1168      C1174   1.404       .  A
C1168      C1169   1.413       .  A
C1169      C1171   1.403       .  A
C1169      C1170   1.403       .  A
C1170      H1177   1.084       .  S
C1171      C1172   1.398       .  A
C1172      C1173   1.404       .  A
C1173      C1174   1.406       .  A
C1174      H1180   1.083       .  S
C1181      C1182   1.407       .  A
C1181      C1186   1.406       .  A
C1182      C1183   1.394       .  A
C1182      H1191   1.084       .  S
C1183      C1184   1.399       .  A
C1183      H1192   1.081       .  S
C1184      C1190   1.404       .  A
C1184      C1185   1.415       .  A
C1185      C1187   1.402       .  A
C1185      C1186   1.408       .  A
C1187      C1188   1.398       .  A
C1188      C1189   1.407       .  A
C1189      C1190   1.403       .  A
C1190      H1196   1.081       .  S
C1197      C1198   1.407       .  A
C1197      C1202   1.406       .  A
C1198      C1199   1.391       .  A
C1199      C1200   1.397       .  A
C1199      H1208   1.082       .  S
C1200      C1206   1.399       .  A
C1200      C1201   1.415       .  A
C1201      C1203   1.403       .  A
C1201      C1202   1.409       .  A
C1202      H1209   1.083       .  S
C1203      C1204   1.400       .  A
C1203      H1210   1.082       .  S
C1204      C1205   1.405       .  A
C1205      C1206   1.402       .  A
C1206      H1212   1.083       .  S
C1213      C1214   1.406       .  A
C1213      C1218   1.411       .  A
C1215      H1224   1.083       .  S
C1216      C1222   1.403       .  A
C1217      C1218   1.412       .  A
C1218      H1225   1.083       .  S
C1219      C1220   1.403       .  A
C1219      H1226   1.083       .  S
C1220      H1227   1.083       .  S
C1221      C1222   1.406       .  A
C1222      H1228   1.084       .  S
C1229      C1230   1.409       .  A
C1229      C1234   1.404       .  A
C1230      C1231   1.401       .  A
C1230      H1239   1.084       .  S
C1231      C1232   1.402       .  A
C1231      H1240   1.083       .  S
C1232      C1238   1.411       .  A
C1232      C1233   1.415       .  A
C1233      C1235   1.399       .  A
C1233      C1234   1.407       .  A
C1234      H1241   1.083       .  S
C1235      C1236   1.395       .  A
C1235      H1242   1.083       .  S
C1236      C1237   1.407       .  A
C1236      H1243   1.083       .  S
C1237      C1238   1.409       .  A
C1238      H1244   1.083       .  S
C1245      C1246   1.407       .  A
C1245      C1250   1.405       .  A
C1246      C1247   1.397       .  A
C1246      H1255   1.083       .  S
C1247      C1248   1.400       .  A
C1247      H1256   1.084       .  S
C1248      C1254   1.408       .  A
C1248      C1249   1.416       .  A
C1249      C1250   1.409       .  A
C1251      C1252   1.397       .  A
C1251      H1258   1.085       .  S
C1252      C1253   1.407       .  A
C1252      H1259   1.083       .  S
C1254      H1260   1.085       .  S
