geometry optimzed in LAMMPS
_audit_creation_date              2020-11-30 
_audit_creation_method            'lammps2cif' 
_symmetry_space_group_name_H-M    'P1' 
_symmetry_Int_Tables_number       1 
_symmetry_cell_setting            triclinic 
loop_ 
_symmetry_equiv_pos_as_xyz 
  x,y,z 
_cell_length_a                    34.30081465946196 
_cell_length_b                    34.22274469472247 
_cell_length_c                    44.25934031736679 
_cell_angle_alpha                 89.99792671933064 
_cell_angle_beta                  89.62878379718583 
_cell_angle_gamma                 121.17626757655657 
loop_ 
_atom_site_label 
_atom_site_type_symbol 
_atom_site_fract_x 
_atom_site_fract_y 
_atom_site_fract_z 
_atom_site_charge 
C1          C  0.05887544  0.14017867  0.52561700     0.03830
C2          C  0.08111227  0.16444735  0.49915505    -0.12320
C3          C  0.08467863  0.14207201  0.47377337     0.01330
C4          C  0.06332662  0.09439055  0.47393803    -0.10840
C5          C  0.04051556  0.06919430  0.49999070     0.03820
C6          C  0.04001530  0.09254417  0.52604413    -0.10260
H7          H  0.09645064  0.20116024  0.49820374     0.09420
H8          H  0.06623572  0.07715438  0.45427586     0.06950
H9          H  0.02452875  0.07338286  0.54655191     0.06800
C10         C  0.10759336  0.02404092  0.85647578     0.03830
C11         C  0.10728775  0.49938376  0.83118916    -0.12320
C12         C  0.07553040  0.48849787  0.80801217     0.01330
C13         C  0.04732923  0.00724302  0.80901920    -0.10840
C14         C  0.04962301  0.03480963  0.83336414     0.03820
C15         C  0.07897947  0.04189515  0.85750674    -0.10260
H16         H  0.13103167  0.48753031  0.83016876     0.09420
H17         H  0.02296026  0.49972211  0.79123505     0.06950
H18         H  0.08044619  0.06214618  0.87677818     0.06800
C19         C  0.49826563  0.44726110  0.52523800     0.03830
C20         C  0.02101035  0.49518758  0.52491282    -0.12320
C21         C  0.01731843  0.01857413  0.50002199     0.01330
C22         C  0.49024791  0.49329474  0.47541210    -0.10840
C23         C  0.46708469  0.44545372  0.47575903     0.03820
C24         C  0.47111633  0.42260841  0.50063563    -0.10260
H25         H  0.04178060  0.01417413  0.54402921     0.09420
H26         H  0.48611025  0.01064871  0.45633918     0.06950
H27         H  0.45306447  0.38562048  0.50083252     0.06800
O28         O  0.08479610  0.36131308  0.69896798    -0.57110
C29         C  0.04674618  0.24693059  0.62358136     0.75520
O30         O  0.48108097  0.23079530  0.70075047    -0.58270
C31         C  0.05293673  0.36438456  0.71166133     0.75490
C32         C  0.01503664  0.34498092  0.62366410     0.77880
Cd33       Cd  0.03146408  0.29641295  0.66830137     1.37460
O34         O  0.08051588  0.28175518  0.63582426    -0.57110
O35         O  0.05489096  0.35483234  0.63113112    -0.55920
C36         C  0.01446822  0.23030936  0.71305555     0.77840
O37         O  0.48157690  0.31158209  0.63758778    -0.58290
O38         O  0.00704537  0.23603639  0.63260613    -0.56740
O39         O  0.01207518  0.33639033  0.70388549    -0.56730
O40         O  0.05432589  0.26052923  0.70427401    -0.55900
C41         C  0.12617634  0.06660666  0.14486433     0.03830
C42         C  0.15014356  0.09014855  0.17072970    -0.12320
C43         C  0.12823256  0.09807212  0.19488036     0.01330
C44         C  0.08102982  0.08044530  0.19285221    -0.10840
C45         C  0.05597104  0.05401106  0.16796517     0.03820
C46         C  0.07897219  0.04805512  0.14372246    -0.10260
H47         H  0.18625659  0.10261325  0.17172630     0.09420
H48         H  0.06352791  0.08797004  0.21019032     0.06950
H49         H  0.06021867  0.02890858  0.12401935     0.06800
C50         C  0.43508787  0.01166536  0.14156466     0.03830
C51         C  0.48292981  0.03347126  0.14184615    -0.12320
C52         C  0.00567180  0.03193267  0.16772337     0.01330
C53         C  0.48007702  0.50752951  0.19324133    -0.10840
C54         C  0.43249085  0.48537231  0.19305372     0.03820
C55         C  0.41025951  0.48826136  0.16755609    -0.10260
H56         H  0.50247786  0.05181506  0.12196703     0.09420
H57         H  0.49698354  0.50425441  0.21284757     0.06950
H58         H  0.37347414  0.47165472  0.16792270     0.06800
O59         O  0.34548407  0.30884415  0.36483145    -0.57110
C60         C  0.23397338  0.22159732  0.29121189     0.75520
O61         O  0.21011002  0.27567714  0.36140811    -0.58270
C62         C  0.34503516  0.34117226  0.37897790     0.75490
C63         C  0.32744216  0.36023675  0.28928838     0.77880
Cd64       Cd  0.27943944  0.29240822  0.33386879     1.37460
O65         O  0.26983989  0.22733471  0.30399205    -0.57110
O66         O  0.33640461  0.32956133  0.29569590    -0.55920
C67         C  0.21169931  0.24637360  0.37841320     0.77840
O68         O  0.29512268  0.35996145  0.30400027    -0.58290
O69         O  0.21964488  0.24779573  0.29879576    -0.56740
O70         O  0.31480827  0.35024485  0.37161213    -0.56730
O71         O  0.24367596  0.23853632  0.37395028    -0.55900
C72         C  0.47343712  0.07843834  0.85986477     0.03830
C73         C  0.49837002  0.05635588  0.85948733    -0.12320
C74         C  0.02217749  0.05698504  0.83339570     0.01330
C75         C  0.02137063  0.08061015  0.80766082    -0.10840
C76         C  0.99971552  0.10606278  0.80845278     0.03820
C77         C  0.47532400  0.10415224  0.83459923    -0.10260
H78         H  0.49864615  0.03803677  0.87937927     0.09420
H79         H  0.03893233  0.08033456  0.78731797     0.06950
H80         H  0.45759630  0.12269149  0.83533984     0.06800
O81         O  0.30181867  0.49745584  0.03065299    -0.57110
C82         C  0.22469288  0.03714884  0.95381613     0.75520
O83         O  0.26617653  0.09116100  0.03340877    -0.58270
C84         C  0.33520726  0.03181766  0.04360181     0.75490
C85         C  0.35047769  0.06132746  0.95670326     0.77880
Cd86       Cd  0.28384436  0.04566187  0.00027134     1.37470
O87         O  0.21899449  0.50147818  0.96734013    -0.57110
O88         O  0.31878143  0.02124372  0.96430460    -0.55750
C89         C  0.23176353  0.05634779  0.04550128     0.77840
O90         O  0.35110791  0.09490334  0.96989741    -0.58290
O91         O  0.25711803  0.07589293  0.96253638    -0.56740
O92         O  0.34314526  0.07127404  0.03623812    -0.56730
O93         O  0.22202166  0.01721152  0.03588650    -0.55900
C94         C  0.44442023  0.07414793  0.88627607     0.00550
C95         C  0.44741602  0.11358939  0.89835267    -0.11330
C96         C  0.41790757  0.11075233  0.92148799     0.02780
C97         C  0.38454777  0.06755360  0.93321928     0.00460
C98         C  0.38248700  0.02828448  0.92153281    -0.11270
C99         C  0.41161611  0.03112987  0.89827586     0.02670
H100        H  0.47257705  0.14681027  0.88934794     0.15650
H101        H  0.35724869  0.99480024  0.93010073     0.15650
C102        C  0.40522467  0.98904170  0.88610646     0.37300
C103        C  0.42217225  0.15273353  0.93196558     0.37210
N104        N  0.40028463  0.45536675  0.87644230    -0.43040
N105        N  0.42566803  0.18648539  0.94022790    -0.43040
C106        C  0.40553663  0.45396820  0.21783045     0.00550
C107        C  0.39235923  0.46987429  0.24279314    -0.11330
C108        C  0.36634053  0.43998253  0.26638211     0.02780
C109        C  0.35349248  0.39359108  0.26500886     0.00460
C110        C  0.36752528  0.37831205  0.24014022    -0.11270
C111        C  0.39277542  0.40778432  0.21651738     0.02670
H112        H  0.40262865  0.50557823  0.24390157     0.15650
H113        H  0.35863382  0.34311657  0.23910025     0.15650
C114        C  0.40515797  0.38989501  0.19104470     0.37300
C115        C  0.35555560  0.45816481  0.29238957     0.37210
N116        N  0.41499463  0.37566556  0.17055784    -0.43040
N117        N  0.34716790  0.47273732  0.31337448    -0.43040
C118        C  0.41120413  0.01507485  0.11465643     0.00550
C119        C  0.42753802  0.05811368  0.10147397    -0.11330
C120        C  0.40456837  0.06405570  0.07761086     0.02780
C121        C  0.36334394  0.02641832  0.06677818     0.00460
C122        C  0.34821049  0.48291667  0.07903810    -0.11270
C123        C  0.37188631  0.47688613  0.10251608     0.02670
H124        H  0.45801942  0.08759097  0.11027200     0.15650
H125        H  0.31743165  0.45348149  0.07053532     0.15650
C126        C  0.35561269  0.43102397  0.11316574     0.37300
C127        C  0.42483657  0.10925873  0.06464971     0.37210
N128        N  0.34255463  0.39427272  0.12169290    -0.43040
N129        N  0.44135174  0.14547859  0.05423234    -0.43040
C130        C  0.15569893  0.12725169  0.22090310     0.00550
C131        C  0.19981540  0.16471671  0.21502873    -0.11330
C132        C  0.22711876  0.19351829  0.23814431     0.02780
C133        C  0.20980507  0.18692232  0.26776387     0.00460
C134        C  0.16613125  0.14976367  0.27406365    -0.11270
C135        C  0.13953181  0.11920512  0.25124342     0.02670
H136        H  0.21309131  0.17236425  0.19211206     0.15650
H137        H  0.15280824  0.14456790  0.29697364     0.15650
C138        C  0.09665737  0.07952838  0.26007006     0.37300
C139        C  0.27249086  0.23017190  0.23062043     0.37210
N140        N  0.06227287  0.04790067  0.26734780    -0.43040
N141        N  0.30900403  0.25882631  0.22412083    -0.43040
C142        C  0.20406461  0.06024207  0.07008720     0.00550
C143        C  0.16786595  0.01978175  0.08284280    -0.11330
C144        C  0.14171670  0.02098096  0.10685251     0.02780
C145        C  0.15144589  0.06327854  0.11866661     0.00460
C146        C  0.18703035  0.10371938  0.10584199    -0.11270
C147        C  0.21316901  0.10268340  0.08175323     0.02670
H148        H  0.16022258  0.98683930  0.07439830     0.15650
H149        H  0.19444032  0.13636857  0.11477229     0.15650
C150        C  0.24899077  0.14583059  0.06977872     0.37300
C151        C  0.10644696  0.47835350  0.11978591     0.37210
N152        N  0.27761477  0.18053890  0.06026106    -0.43040
N153        N  0.07814418  0.44422909  0.13020409    -0.43040
C154        C  0.00316898  0.13572375  0.78253476     0.00550
C155        C  0.46424210  0.13655124  0.77364711    -0.11330
C156        C  0.46665267  0.16681731  0.75127583     0.02780
C157        C  0.00857871  0.19644162  0.73655530     0.00460
C158        C  0.04719873  0.19482763  0.74501357    -0.11270
C159        C  0.04509977  0.16555635  0.76785064     0.02670
H160        H  0.43177428  0.11391650  0.78460005     0.15650
H161        H  0.07980394  0.21736152  0.73417563     0.15650
C162        C  0.08726783  0.16903513  0.77667314     0.37300
C163        C  0.42596369  0.16787386  0.74502030     0.37210
N164        N  0.12110625  0.17181072  0.78356255    -0.43040
N165        N  0.39334374  0.16886062  0.74027146    -0.43040
C166        C  0.43610365  0.41894089  0.45094232     0.00550
C167        C  0.45197271  0.40362304  0.42715617    -0.11330
C168        C  0.42295798  0.37784772  0.40348335     0.02780
C169        C  0.37726903  0.36715841  0.40354810     0.00460
C170        C  0.36173650  0.38281991  0.42744105    -0.11270
C171        C  0.39058495  0.40820299  0.45110319     0.02670
H172        H  0.48710716  0.41207678  0.42702133     0.15650
H173        H  0.32672165  0.37476252  0.42782695     0.15650
C174        C  0.37271188  0.42247472  0.47555433     0.37300
C175        C  0.44145102  0.36471533  0.37881370     0.37210
N176        N  0.35853171  0.43386773  0.49524894    -0.43040
N177        N  0.45631707  0.35437948  0.35894635    -0.43040
C178        C  0.00914527  0.37160919  0.59938285     0.00550
C179        C  0.04849286  0.40585741  0.58440148    -0.11330
C180        C  0.04569386  0.43109346  0.56058868     0.02780
C181        C  0.50282071  0.42259766  0.55122249     0.00460
C182        C  0.46342632  0.38892424  0.56624602    -0.11270
C183        C  0.46614496  0.36359129  0.59019313     0.02670
H184        H  0.08184784  0.41264084  0.59089811     0.15650
H185        H  0.43036516  0.38241913  0.55919979     0.15650
C186        C  0.42421107  0.32980129  0.60467568     0.37300
C187        C  0.08725249  0.46408340  0.54527021     0.37210
N188        N  0.39048629  0.30279340  0.61623356    -0.43040
N189        N  0.12051132  0.49053261  0.53298333    -0.43040
C190        C  0.07130959  0.45699091  0.78314756     0.00550
C191        C  0.06460768  0.46648942  0.75329143    -0.11330
C192        C  0.05904921  0.43693344  0.72955966     0.02780
C193        C  0.06224587  0.39823335  0.73523524     0.00460
C194        C  0.06923620  0.38865401  0.76470504    -0.11270
C195        C  0.07266614  0.41682479  0.78871617     0.02670
H196        H  0.06327879  0.49681227  0.74845380     0.15650
H197        H  0.06987130  0.35781982  0.76916048     0.15650
C198        C  0.07435370  0.40164522  0.81888633     0.37300
C199        C  0.04914509  0.44631253  0.69967176     0.37210
N200        N  0.07579810  0.38948851  0.84303414    -0.43040
N201        N  0.04082018  0.45341672  0.67572618    -0.43040
C202        C  0.13698016  0.02920079  0.88225155     0.00550
C203        C  0.18433595  0.05694285  0.87889861    -0.11330
C204        C  0.21344640  0.05995573  0.90198939     0.02780
C205        C  0.19508034  0.03420107  0.92880499     0.00460
C206        C  0.14777713  0.50600538  0.93196257    -0.11270
C207        C  0.11865526  0.50367217  0.90905447     0.02670
H208        H  0.19854638  0.07588543  0.85803359     0.15650
H209        H  0.13348798  0.48622929  0.95252304     0.15650
C210        C  0.07007856  0.47406838  0.91319356     0.37300
C211        C  0.26204893  0.08803848  0.89704005     0.37210
N212        N  0.03112679  0.45042821  0.91647616    -0.43040
N213        N  0.30098600  0.11041213  0.89303945    -0.43040
C214        C  0.17855888  0.22241999  0.40297587     0.00550
C215        C  0.13198354  0.19513960  0.39641428    -0.11330
C216        C  0.10051396  0.16818134  0.41902556     0.02780
C217        C  0.11567313  0.16949660  0.44877985     0.00460
C218        C  0.16207781  0.19769503  0.45534291    -0.11270
C219        C  0.19354319  0.22361657  0.43274256     0.02670
H220        H  0.12044733  0.19376494  0.37345306     0.15650
H221        H  0.17387565  0.19878991  0.47820719     0.15650
C222        C  0.24104134  0.25146434  0.44074321     0.37300
C223        C  0.05306831  0.13962776  0.41127191     0.37210
N224        N  0.27904341  0.27364528  0.44726573    -0.43040
N225        N  0.01504791  0.11662183  0.40500817    -0.43040
C226        C  0.05639023  0.16539532  0.55252686     0.00550
C227        C  0.09418285  0.20884680  0.55925415    -0.11330
C228        C  0.09212656  0.23619059  0.58203502     0.02780
C229        C  0.05224006  0.21944064  0.59980181     0.00460
C230        C  0.01512355  0.17544385  0.59391545    -0.11270
C231        C  0.01646362  0.14877468  0.57044097     0.02670
H232        H  0.12537107  0.22219197  0.54616361     0.15650
H233        H  0.98414762  0.16204205  0.60727814     0.15650
C234        C  0.97524398  0.10571768  0.56456739     0.37300
C235        C  0.13032979  0.28225810  0.58513080     0.37210
N236        N  0.44216147  0.07110431  0.56018467    -0.43040
N237        N  0.16077327  0.31934964  0.58725407    -0.43040
C238        C  0.05887312  0.64019057  0.52561533     0.03830
C239        C  0.08111074  0.66446028  0.49915369    -0.12320
C240        C  0.08467706  0.64208562  0.47377144     0.01330
C241        C  0.06332490  0.59440418  0.47393545    -0.10840
C242        C  0.04051373  0.56920710  0.49998772     0.03820
C243        C  0.04001300  0.59255599  0.52604156    -0.10260
H244        H  0.09644956  0.70117324  0.49820302     0.09420
H245        H  0.06623426  0.57716859  0.45427303     0.06950
H246        H  0.02452641  0.57339379  0.54654905     0.06800
C247        C  0.10767928  0.52405235  0.85646202     0.03830
C248        C  0.10721963  0.99937933  0.83120323    -0.12320
C249        C  0.07546847  0.98848541  0.80802072     0.01330
C250        C  0.04740297  0.50726867  0.80901721    -0.10840
C251        C  0.04971427  0.53484090  0.83336374     0.03820
C252        C  0.07907714  0.54191941  0.85750080    -0.10260
H253        H  0.13097273  0.98753708  0.83018722     0.09420
H254        H  0.02289161  0.99969149  0.79123264     0.06950
H255        H  0.08055596  0.56217215  0.87677451     0.06800
C256        C  0.49826460  0.94724845  0.52524333     0.03830
C257        C  0.02101004  0.99517504  0.52491733    -0.12320
C258        C  0.01731757  0.51858705  0.50001816     0.01330
C259        C  0.49024878  0.99328141  0.47541613    -0.10840
C260        C  0.46708435  0.94544037  0.47576377     0.03820
C261        C  0.47111492  0.92259526  0.50064107    -0.10260
H262        H  0.04178092  0.51418621  0.54402482     0.09420
H263        H  0.48610836  0.51066224  0.45633570     0.06950
H264        H  0.45306252  0.88560733  0.50083840     0.06800
O265        O  0.08479149  0.86132191  0.69898047    -0.57110
C266        C  0.04674733  0.74693374  0.62358861     0.75520
O267        O  0.48110710  0.73079449  0.70076638    -0.58270
C268        C  0.05292601  0.86438328  0.71167364     0.75490
C269        C  0.01504075  0.84497827  0.62367483     0.77880
Cd270      Cd  0.03147112  0.79641446  0.66831353     1.37460
O271        O  0.08051823  0.78175915  0.63583008    -0.57110
O272        O  0.05489590  0.85483332  0.63114310    -0.55920
C273        C  0.01450210  0.73031757  0.71306668     0.77840
O274        O  0.48158170  0.81157855  0.63759856    -0.58290
O275        O  0.00704738  0.73603666  0.63261771    -0.56740
O276        O  0.01206643  0.83637973  0.70389823    -0.56730
O277        O  0.05435537  0.76054310  0.70428103    -0.55900
C278        C  0.12621785  0.56660394  0.14485336     0.03830
C279        C  0.15018717  0.59014696  0.17071828    -0.12320
C280        C  0.12827572  0.59806257  0.19487277     0.01330
C281        C  0.08107152  0.58042884  0.19284807    -0.10840
C282        C  0.05601114  0.55399337  0.16796220     0.03820
C283        C  0.07901183  0.54804423  0.14371599    -0.10260
H284        H  0.18630161  0.60261767  0.17171180     0.09420
H285        H  0.06356922  0.58794991  0.21018800     0.06950
H286        H  0.06025661  0.52889758  0.12401340     0.06800
C287        C  0.43512543  0.51165580  0.14157251     0.03830
C288        C  0.48296672  0.53345519  0.14184965    -0.12320
C289        C  0.00571146  0.53191268  0.16772389     0.01330
C290        C  0.48003465  0.00754880  0.19323948    -0.10840
C291        C  0.43244844  0.98538506  0.19304767     0.03820
C292        C  0.41021909  0.98826884  0.16754708    -0.10260
H293        H  0.50251237  0.55179872  0.12196973     0.09420
H294        H  0.49693936  0.00427597  0.21284764     0.06950
H295        H  0.37343320  0.97165634  0.16791050     0.06800
O296        O  0.34549216  0.80884352  0.36482762    -0.57110
C297        C  0.23399780  0.72159153  0.29120790     0.75520
O298        O  0.21011090  0.77567669  0.36140085    -0.58270
C299        C  0.34504244  0.84116966  0.37897604     0.75490
C300        C  0.32742808  0.86024227  0.28928530     0.77880
Cd301      Cd  0.27944476  0.79240757  0.33386589     1.37460
O302        O  0.26986774  0.72734055  0.30398953    -0.57110
O303        O  0.33640280  0.82957509  0.29569069    -0.55920
C304        C  0.21169986  0.74637628  0.37840930     0.77840
O305        O  0.29510643  0.85995740  0.30400057    -0.58290
O306        O  0.21965678  0.74777945  0.29879149    -0.56740
O307        O  0.31481558  0.85024234  0.37161095    -0.56730
O308        O  0.24367706  0.73853919  0.37394942    -0.55900
C309        C  0.47354883  0.57848479  0.85988333     0.03830
C310        C  0.49848236  0.55640288  0.85950049    -0.12320
C311        C  0.02227678  0.55702507  0.83340358     0.01330
C312        C  0.02145951  0.58064595  0.80766958    -0.10840
C313        C  0.99980430  0.60609817  0.80846623     0.03820
C314        C  0.47542422  0.60419301  0.83461749    -0.10260
H315        H  0.49876655  0.53808698  0.87939176     0.09420
H316        H  0.03901151  0.58036576  0.78732292     0.06950
H317        H  0.45769497  0.62273060  0.83536099     0.06800
O318        O  0.30176172  0.99744086  0.03065082    -0.57110
C319        C  0.22478266  0.53715854  0.95379881     0.75520
O320        O  0.26623293  0.59117967  0.03340036    -0.58270
C321        C  0.33525946  0.53182976  0.04360957     0.75490
C322        C  0.35057875  0.56136541  0.95671673     0.77880
Cd323      Cd  0.28391858  0.54568475  0.00026889     1.37470
O324        O  0.21889802  0.00146581  0.96735726    -0.57110
O325        O  0.31888264  0.52127997  0.96431443    -0.55750
C326        C  0.23181657  0.55636459  0.04548854     0.77840
O327        O  0.35119776  0.59493804  0.96990744    -0.58290
O328        O  0.25719492  0.57590526  0.96252601    -0.56740
O329        O  0.34320116  0.57128793  0.03624746    -0.56730
O330        O  0.22208010  0.51723019  0.03587348    -0.55900
C331        C  0.44453738  0.57419423  0.88629845     0.00550
C332        C  0.44752680  0.61363425  0.89837272    -0.11330
C333        C  0.41801552  0.61079511  0.92150690     0.02780
C334        C  0.38465921  0.56759591  0.93323937     0.00460
C335        C  0.38260852  0.52832901  0.92155787    -0.11270
C336        C  0.41173999  0.53117611  0.89830206     0.02670
H337        H  0.47268329  0.64685536  0.88936587     0.15650
H338        H  0.35737424  0.49484445  0.93012760     0.15650
C339        C  0.40535537  0.48908847  0.88613673     0.37300
C340        C  0.42227201  0.65277419  0.93198111     0.37210
N341        N  0.40014844  0.95531962  0.87640857    -0.43040
N342        N  0.42576129  0.68652437  0.94024078    -0.43040
C343        C  0.40549462  0.95397749  0.21782285     0.00550
C344        C  0.39231948  0.96988036  0.24278845    -0.11330
C345        C  0.36630877  0.93998695  0.26637882     0.02780
C346        C  0.35346681  0.89359741  0.26500394     0.00460
C347        C  0.36749633  0.87832146  0.24013197    -0.11270
C348        C  0.39273921  0.90779534  0.21650811     0.02670
H349        H  0.40258588  0.00558337  0.24389854     0.15650
H350        H  0.35860918  0.84312748  0.23909077     0.15650
C351        C  0.40512386  0.88991032  0.19103400     0.37300
C352        C  0.35552719  0.95816608  0.29238953     0.37210
N353        N  0.41496275  0.87568431  0.17054630    -0.43040
N354        N  0.34714235  0.97273616  0.31337703    -0.43040
C355        C  0.41124047  0.51507127  0.11466748     0.00550
C356        C  0.42757926  0.55811198  0.10148679    -0.11330
C357        C  0.40461338  0.56405930  0.07762383     0.02780
C358        C  0.36338806  0.52642538  0.06678933     0.00460
C359        C  0.34817348  0.98291117  0.07902714    -0.11270
C360        C  0.37185343  0.97688590  0.10250485     0.02670
H361        H  0.45806261  0.58758641  0.11028547     0.15650
H362        H  0.31739634  0.95347309  0.07052524     0.15650
C363        C  0.35558720  0.93102517  0.11315439     0.37300
C364        C  0.42488727  0.60926374  0.06466403     0.37210
N365        N  0.34253513  0.89427497  0.12168121    -0.43040
N366        N  0.44140694  0.64548472  0.05424785    -0.43040
C367        C  0.15574104  0.62724078  0.22089662     0.00550
C368        C  0.19985548  0.66471027  0.21502368    -0.11330
C369        C  0.22715457  0.69351361  0.23814027     0.02780
C370        C  0.20983819  0.68691446  0.26775934     0.00460
C371        C  0.16616735  0.64975019  0.27405780    -0.11270
C372        C  0.13957293  0.61919011  0.25123688     0.02670
H373        H  0.21313267  0.67236071  0.19210740     0.15650
H374        H  0.15284240  0.64455148  0.29696739     0.15650
C375        C  0.09670229  0.57950804  0.26006304     0.37300
C376        C  0.27252486  0.73017214  0.23061786     0.37210
N377        N  0.06232072  0.54787624  0.26734050    -0.43040
N378        N  0.30903698  0.75883012  0.22411936    -0.43040
C379        C  0.20410953  0.56025423  0.07007121     0.00550
C380        C  0.16791144  0.51979152  0.08282482    -0.11330
C381        C  0.14175988  0.52098594  0.10683497     0.02780
C382        C  0.15148638  0.56328117  0.11865225     0.00460
C383        C  0.18706792  0.60372450  0.10582786    -0.11270
C384        C  0.21320804  0.60269316  0.08173804     0.02670
H385        H  0.16027130  0.48685072  0.07437905     0.15650
H386        H  0.19447494  0.63637203  0.11475945     0.15650
C387        C  0.24902518  0.64584250  0.06976310     0.37300
C388        C  0.10640283  0.97835130  0.11980607     0.37210
N389        N  0.27764518  0.68055247  0.06024482    -0.43040
N390        N  0.07809961  0.94422926  0.13022665    -0.43040
C391        C  0.00324313  0.63575056  0.78254689     0.00550
C392        C  0.46430928  0.63656915  0.77366537    -0.11330
C393        C  0.46670632  0.66682737  0.75129287     0.02780
C394        C  0.00862595  0.69645419  0.73656596     0.00460
C395        C  0.04725262  0.69484789  0.74501757    -0.11270
C396        C  0.04516669  0.66558295  0.76785489     0.02670
H397        H  0.43184666  0.61393337  0.78462400     0.15650
H398        H  0.07985278  0.71738281  0.73417403     0.15650
C399        C  0.08734039  0.66906744  0.77666914     0.37300
C400        C  0.42601012  0.66787278  0.74504226     0.37210
N401        N  0.12118321  0.67184737  0.78355185    -0.43040
N402        N  0.39338408  0.66884993  0.74029719    -0.43040
C403        C  0.43610455  0.91892809  0.45094626     0.00550
C404        C  0.45197495  0.90361118  0.42716034    -0.11330
C405        C  0.42296254  0.87783956  0.40348553     0.02780
C406        C  0.37727447  0.86715289  0.40354798     0.00460
C407        C  0.36174068  0.88281366  0.42744071    -0.11270
C408        C  0.39058683  0.90819322  0.45110474     0.02670
H409        H  0.48710889  0.91206334  0.42702700     0.15650
H410        H  0.32672657  0.87475863  0.42782489     0.15650
C411        C  0.37271255  0.92246517  0.47555503     0.37300
C412        C  0.44145742  0.86470881  0.37881613     0.37210
N413        N  0.35853137  0.93385840  0.49524890    -0.43040
N414        N  0.45632507  0.85437446  0.35894893    -0.43040
C415        C  0.00914766  0.87160329  0.59939188     0.00550
C416        C  0.04849451  0.90585159  0.58440997    -0.11330
C417        C  0.04569423  0.93108470  0.56059569     0.02780
C418        C  0.50282040  0.92258603  0.55122843     0.00460
C419        C  0.46342659  0.88891206  0.56625225    -0.11270
C420        C  0.46614654  0.86358191  0.59020083     0.02670
H421        H  0.08185004  0.91263744  0.59090738     0.15650
H422        H  0.43036488  0.88240461  0.55920532     0.15650
C423        C  0.42421317  0.82979121  0.60468357     0.37300
C424        C  0.08725255  0.96407483  0.54527701     0.37210
N425        N  0.39048880  0.80278272  0.61624157    -0.43040
N426        N  0.12051117  0.99052422  0.53299002    -0.43040
C427        C  0.07126641  0.95698429  0.78315680     0.00550
C428        C  0.06456707  0.96647943  0.75329911    -0.11330
C429        C  0.05902067  0.93692612  0.72956831     0.02780
C430        C  0.06222630  0.89823178  0.73524646     0.00460
C431        C  0.06921680  0.88865720  0.76471751    -0.11270
C432        C  0.07263581  0.91682550  0.78872748     0.02670
H433        H  0.06322988  0.99679717  0.74845947     0.15650
H434        H  0.06986030  0.85782794  0.76917479     0.15650
C435        C  0.07432548  0.90164981  0.81889842     0.37300
C436        C  0.04911894  0.94630154  0.69967863     0.37210
N437        N  0.07577197  0.88949614  0.84304678    -0.43040
N438        N  0.04079629  0.95340292  0.67573157    -0.43040
C439        C  0.13706437  0.52919791  0.88223383     0.00550
C440        C  0.18441500  0.55702411  0.87890617    -0.11330
C441        C  0.21352882  0.56003818  0.90199511     0.02780
C442        C  0.19517150  0.53420455  0.92878382     0.00460
C443        C  0.14768114  0.00609072  0.93201289    -0.11270
C444        C  0.11856303  0.00376400  0.90910371     0.02670
H445        H  0.19861954  0.57603168  0.85806216     0.15650
H446        H  0.13338708  0.98637877  0.95259595     0.15650
C447        C  0.06998055  0.97425220  0.91327463     0.37300
C448        C  0.26212923  0.58820672  0.89706855     0.37210
N449        N  0.03102435  0.95068713  0.91658357    -0.43040
N450        N  0.30106486  0.61064882  0.89308542    -0.43040
C451        C  0.17855885  0.72242644  0.40297243     0.00550
C452        C  0.13198336  0.69514710  0.39641103    -0.11330
C453        C  0.10051319  0.66819204  0.41902297     0.02780
C454        C  0.11567176  0.66951004  0.44877784     0.00460
C455        C  0.16207654  0.69770789  0.45534074    -0.11270
C456        C  0.19354259  0.72362567  0.43273970     0.02670
H457        H  0.12044749  0.69377025  0.37344946     0.15650
H458        H  0.17387410  0.69880435  0.47820531     0.15650
C459        C  0.24104097  0.75147155  0.44074019     0.37300
C460        C  0.05306764  0.63963814  0.41126919     0.37210
N461        N  0.27904322  0.77365065  0.44726270    -0.43040
N462        N  0.01504735  0.61663183  0.40500531    -0.43040
C463        C  0.05638777  0.66540596  0.55252613     0.00550
C464        C  0.09418028  0.70885703  0.55925434    -0.11330
C465        C  0.09212485  0.73619840  0.58203747     0.02780
C466        C  0.05223931  0.71944651  0.59980568     0.00460
C467        C  0.01512242  0.67545052  0.59391775    -0.11270
C468        C  0.01646166  0.64878378  0.57044110     0.02670
H469        H  0.12536808  0.72220359  0.54616316     0.15650
H470        H  0.98414697  0.66204730  0.60728113     0.15650
C471        C  0.97524180  0.60572743  0.56456654     0.37300
C472        C  0.13032837  0.78226546  0.58513453     0.37210
N473        N  0.44215907  0.57111460  0.56018288    -0.43040
N474        N  0.16077210  0.81935667  0.58725885    -0.43040
C475        C  0.55887545  0.14017867  0.52561701     0.03830
C476        C  0.58111227  0.16444735  0.49915505    -0.12320
C477        C  0.58467863  0.14207202  0.47377337     0.01330
C478        C  0.56332662  0.09439055  0.47393803    -0.10840
C479        C  0.54051556  0.06919430  0.49999071     0.03820
C480        C  0.54001532  0.09254418  0.52604413    -0.10260
H481        H  0.59645063  0.20116025  0.49820374     0.09420
H482        H  0.56623571  0.07715439  0.45427586     0.06950
H483        H  0.52452878  0.07338286  0.54655192     0.06800
C484        C  0.60759335  0.02404092  0.85647577     0.03830
C485        C  0.60728775  0.49938376  0.83118917    -0.12320
C486        C  0.57553039  0.48849787  0.80801217     0.01330
C487        C  0.54732921  0.00724301  0.80901919    -0.10840
C488        C  0.54962300  0.03480963  0.83336414     0.03820
C489        C  0.57897946  0.04189514  0.85750674    -0.10260
H490        H  0.63103167  0.48753031  0.83016877     0.09420
H491        H  0.52296025  0.49972211  0.79123505     0.06950
H492        H  0.58044618  0.06214618  0.87677818     0.06800
C493        C  0.99826563  0.44726110  0.52523800     0.03830
C494        C  0.52101035  0.49518759  0.52491281    -0.12320
C495        C  0.51731843  0.01857413  0.50002199     0.01330
C496        C  0.99024791  0.49329474  0.47541210    -0.10840
C497        C  0.96708469  0.44545372  0.47575904     0.03820
C498        C  0.97111632  0.42260841  0.50063564    -0.10260
H499        H  0.54178061  0.01417413  0.54402921     0.09420
H500        H  0.98611025  0.01064870  0.45633918     0.06950
H501        H  0.95306446  0.38562047  0.50083253     0.06800
O502        O  0.58479611  0.36131308  0.69896799    -0.57110
C503        C  0.54674620  0.24693059  0.62358136     0.75520
O504        O  0.98108096  0.23079529  0.70075047    -0.58270
C505        C  0.55293673  0.36438456  0.71166133     0.75490
C506        C  0.51503665  0.34498092  0.62366410     0.77880
Cd507      Cd  0.53146409  0.29641296  0.66830137     1.37460
O508        O  0.58051590  0.28175519  0.63582426    -0.57110
O509        O  0.55489097  0.35483235  0.63113112    -0.55920
C510        C  0.51446823  0.23030937  0.71305555     0.77840
O511        O  0.98157689  0.31158208  0.63758778    -0.58290
O512        O  0.50704538  0.23603640  0.63260613    -0.56740
O513        O  0.51207518  0.33639034  0.70388549    -0.56730
O514        O  0.55432590  0.26052924  0.70427401    -0.55900
C515        C  0.62617634  0.06660665  0.14486433     0.03830
C516        C  0.65014356  0.09014854  0.17072970    -0.12320
C517        C  0.62823257  0.09807211  0.19488037     0.01330
C518        C  0.58102983  0.08044529  0.19285221    -0.10840
C519        C  0.55597105  0.05401106  0.16796517     0.03820
C520        C  0.57897220  0.04805511  0.14372247    -0.10260
H521        H  0.68625659  0.10261324  0.17172631     0.09420
H522        H  0.56352791  0.08797004  0.21019033     0.06950
H523        H  0.56021867  0.02890857  0.12401936     0.06800
C524        C  0.93508786  0.01166536  0.14156466     0.03830
C525        C  0.98292979  0.03347127  0.14184615    -0.12320
C526        C  0.50567181  0.03193266  0.16772338     0.01330
C527        C  0.98007701  0.50752951  0.19324133    -0.10840
C528        C  0.93249084  0.48537230  0.19305371     0.03820
C529        C  0.91025950  0.48826135  0.16755609    -0.10260
H530        H  0.00247785  0.05181507  0.12196702     0.09420
H531        H  0.99698354  0.50425441  0.21284757     0.06950
H532        H  0.87347414  0.47165471  0.16792270     0.06800
O533        O  0.84548407  0.30884415  0.36483145    -0.57110
C534        C  0.73397339  0.22159731  0.29121189     0.75520
O535        O  0.71011002  0.27567714  0.36140811    -0.58270
C536        C  0.84503516  0.34117226  0.37897791     0.75490
C537        C  0.82744215  0.36023674  0.28928838     0.77880
Cd538      Cd  0.77943944  0.29240822  0.33386879     1.37460
O539        O  0.76983990  0.22733471  0.30399206    -0.57110
O540        O  0.83640460  0.32956133  0.29569590    -0.55920
C541        C  0.71169931  0.24637360  0.37841320     0.77840
O542        O  0.79512267  0.35996145  0.30400027    -0.58290
O543        O  0.71964488  0.24779572  0.29879576    -0.56740
O544        O  0.81480827  0.35024485  0.37161213    -0.56730
O545        O  0.74367596  0.23853632  0.37395028    -0.55900
C546        C  0.97343713  0.07843834  0.85986477     0.03830
C547        C  0.99837002  0.05635588  0.85948733    -0.12320
C548        C  0.52217748  0.05698504  0.83339570     0.01330
C549        C  0.52137062  0.08061015  0.80766082    -0.10840
C550        C  0.49971551  0.10606278  0.80845277     0.03820
C551        C  0.97532400  0.10415224  0.83459923    -0.10260
H552        H  0.99864616  0.03803677  0.87937928     0.09420
H553        H  0.53893232  0.08033455  0.78731797     0.06950
H554        H  0.95759630  0.12269148  0.83533984     0.06800
O555        O  0.80181867  0.49745584  0.03065299    -0.57110
C556        C  0.72469287  0.03714883  0.95381612     0.75520
O557        O  0.76617652  0.09116100  0.03340876    -0.58270
C558        C  0.83520725  0.03181766  0.04360181     0.75490
C559        C  0.85047769  0.06132746  0.95670326     0.77880
Cd560      Cd  0.78384436  0.04566187  0.00027134     1.37470
O561        O  0.71899450  0.50147818  0.96734012    -0.57110
O562        O  0.81878142  0.02124372  0.96430459    -0.55750
C563        C  0.73176352  0.05634778  0.04550128     0.77840
O564        O  0.85110790  0.09490333  0.96989741    -0.58290
O565        O  0.75711802  0.07589292  0.96253637    -0.56740
O566        O  0.84314525  0.07127404  0.03623811    -0.56730
O567        O  0.72202165  0.01721151  0.03588649    -0.55900
C568        C  0.94442023  0.07414792  0.88627607     0.00550
C569        C  0.94741602  0.11358939  0.89835267    -0.11330
C570        C  0.91790757  0.11075232  0.92148799     0.02780
C571        C  0.88454776  0.06755360  0.93321928     0.00460
C572        C  0.88248700  0.02828447  0.92153281    -0.11270
C573        C  0.91161611  0.03112986  0.89827586     0.02670
H574        H  0.97257704  0.14681027  0.88934794     0.15650
H575        H  0.85724869  0.99480024  0.93010073     0.15650
C576        C  0.90522468  0.98904170  0.88610646     0.37300
C577        C  0.92217224  0.15273353  0.93196557     0.37210
N578        N  0.90028464  0.45536675  0.87644230    -0.43040
N579        N  0.92566801  0.18648539  0.94022789    -0.43040
C580        C  0.90553662  0.45396819  0.21783045     0.00550
C581        C  0.89235925  0.46987430  0.24279314    -0.11330
C582        C  0.86634055  0.43998254  0.26638211     0.02780
C583        C  0.85349247  0.39359108  0.26500886     0.00460
C584        C  0.86752524  0.37831203  0.24014021    -0.11270
C585        C  0.89277539  0.40778430  0.21651737     0.02670
H586        H  0.90262869  0.50557824  0.24390159     0.15650
H587        H  0.85863375  0.34311655  0.23910023     0.15650
C588        C  0.90515790  0.38989499  0.19104468     0.37300
C589        C  0.85555564  0.45816482  0.29238958     0.37210
N590        N  0.91499455  0.37566554  0.17055781    -0.43040
N591        N  0.84716797  0.47273733  0.31337450    -0.43040
C592        C  0.91120412  0.01507486  0.11465643     0.00550
C593        C  0.92753800  0.05811368  0.10147398    -0.11330
C594        C  0.90456835  0.06405570  0.07761087     0.02780
C595        C  0.86334393  0.02641832  0.06677818     0.00460
C596        C  0.84821048  0.48291666  0.07903809    -0.11270
C597        C  0.87188631  0.47688612  0.10251607     0.02670
H598        H  0.95801940  0.08759097  0.11027201     0.15650
H599        H  0.81743164  0.45348149  0.07053532     0.15650
C600        C  0.85561268  0.43102396  0.11316573     0.37300
C601        C  0.92483654  0.10925874  0.06464972     0.37210
N602        N  0.84255462  0.39427271  0.12169290    -0.43040
N603        N  0.94135171  0.14547859  0.05423235    -0.43040
C604        C  0.65569894  0.12725167  0.22090311     0.00550
C605        C  0.69981541  0.16471669  0.21502874    -0.11330
C606        C  0.72711877  0.19351828  0.23814432     0.02780
C607        C  0.70980508  0.18692231  0.26776387     0.00460
C608        C  0.66613126  0.14976366  0.27406366    -0.11270
C609        C  0.63953181  0.11920511  0.25124342     0.02670
H610        H  0.71309133  0.17236423  0.19211207     0.15650
H611        H  0.65280825  0.14456789  0.29697364     0.15650
C612        C  0.59665737  0.07952838  0.26007007     0.37300
C613        C  0.77249088  0.23017188  0.23062044     0.37210
N614        N  0.56227287  0.04790066  0.26734781    -0.43040
N615        N  0.80900405  0.25882628  0.22412084    -0.43040
C616        C  0.70406461  0.06024207  0.07008720     0.00550
C617        C  0.66786595  0.01978174  0.08284280    -0.11330
C618        C  0.64171671  0.02098095  0.10685251     0.02780
C619        C  0.65144589  0.06327853  0.11866662     0.00460
C620        C  0.68703035  0.10371937  0.10584199    -0.11270
C621        C  0.71316900  0.10268339  0.08175322     0.02670
H622        H  0.66022259  0.98683929  0.07439830     0.15650
H623        H  0.69444031  0.13636856  0.11477228     0.15650
C624        C  0.74899075  0.14583058  0.06977870     0.37300
C625        C  0.60644695  0.47835350  0.11978589     0.37210
N626        N  0.77761474  0.18053890  0.06026104    -0.43040
N627        N  0.57814416  0.44422909  0.13020407    -0.43040
C628        C  0.50316898  0.13572376  0.78253476     0.00550
C629        C  0.96424210  0.13655124  0.77364711    -0.11330
C630        C  0.96665267  0.16681730  0.75127583     0.02780
C631        C  0.50857871  0.19644162  0.73655530     0.00460
C632        C  0.54719872  0.19482763  0.74501357    -0.11270
C633        C  0.54509976  0.16555635  0.76785064     0.02670
H634        H  0.93177429  0.11391649  0.78460005     0.15650
H635        H  0.57980394  0.21736151  0.73417563     0.15650
C636        C  0.58726782  0.16903513  0.77667314     0.37300
C637        C  0.92596369  0.16787384  0.74502030     0.37210
N638        N  0.62110625  0.17181071  0.78356255    -0.43040
N639        N  0.89334373  0.16886060  0.74027146    -0.43040
C640        C  0.93610365  0.41894089  0.45094232     0.00550
C641        C  0.95197270  0.40362305  0.42715617    -0.11330
C642        C  0.92295798  0.37784773  0.40348335     0.02780
C643        C  0.87726903  0.36715842  0.40354810     0.00460
C644        C  0.86173650  0.38281991  0.42744106    -0.11270
C645        C  0.89058495  0.40820298  0.45110320     0.02670
H646        H  0.98710716  0.41207680  0.42702133     0.15650
H647        H  0.82672164  0.37476251  0.42782695     0.15650
C648        C  0.87271187  0.42247471  0.47555434     0.37300
C649        C  0.94145102  0.36471535  0.37881370     0.37210
N650        N  0.85853170  0.43386770  0.49524895    -0.43040
N651        N  0.95631708  0.35437951  0.35894634    -0.43040
C652        C  0.50914528  0.37160919  0.59938284     0.00550
C653        C  0.54849287  0.40585742  0.58440148    -0.11330
C654        C  0.54569387  0.43109346  0.56058868     0.02780
C655        C  0.00282070  0.42259765  0.55122250     0.00460
C656        C  0.96342632  0.38892423  0.56624603    -0.11270
C657        C  0.96614495  0.36359129  0.59019314     0.02670
H658        H  0.58184785  0.41264084  0.59089811     0.15650
H659        H  0.93036516  0.38241913  0.55919980     0.15650
C660        C  0.92421106  0.32980128  0.60467569     0.37300
C661        C  0.58725249  0.46408341  0.54527020     0.37210
N662        N  0.89048629  0.30279339  0.61623356    -0.43040
N663        N  0.62051133  0.49053261  0.53298333    -0.43040
C664        C  0.57130958  0.45699091  0.78314756     0.00550
C665        C  0.56460768  0.46648942  0.75329143    -0.11330
C666        C  0.55904920  0.43693344  0.72955966     0.02780
C667        C  0.56224587  0.39823335  0.73523525     0.00460
C668        C  0.56923620  0.38865401  0.76470504    -0.11270
C669        C  0.57266613  0.41682479  0.78871617     0.02670
H670        H  0.56327879  0.49681227  0.74845381     0.15650
H671        H  0.56987129  0.35781982  0.76916048     0.15650
C672        C  0.57435369  0.40164522  0.81888634     0.37300
C673        C  0.54914509  0.44631254  0.69967176     0.37210
N674        N  0.57579809  0.38948851  0.84303414    -0.43040
N675        N  0.54082018  0.45341673  0.67572619    -0.43040
C676        C  0.63698015  0.02920078  0.88225154     0.00550
C677        C  0.68433594  0.05694284  0.87889860    -0.11330
C678        C  0.71344639  0.05995573  0.90198939     0.02780
C679        C  0.69508033  0.03420106  0.92880498     0.00460
C680        C  0.64777713  0.50600537  0.93196256    -0.11270
C681        C  0.61865526  0.50367216  0.90905446     0.02670
H682        H  0.69854636  0.07588542  0.85803358     0.15650
H683        H  0.63348798  0.48622927  0.95252304     0.15650
C684        C  0.57007856  0.47406835  0.91319355     0.37300
C685        C  0.76204892  0.08803847  0.89704004     0.37210
N686        N  0.53112680  0.45042818  0.91647615    -0.43040
N687        N  0.80098599  0.11041212  0.89303944    -0.43040
C688        C  0.67855888  0.22241999  0.40297587     0.00550
C689        C  0.63198353  0.19513961  0.39641428    -0.11330
C690        C  0.60051395  0.16818135  0.41902557     0.02780
C691        C  0.61567312  0.16949660  0.44877985     0.00460
C692        C  0.66207781  0.19769503  0.45534291    -0.11270
C693        C  0.69354319  0.22361656  0.43274256     0.02670
H694        H  0.62044732  0.19376496  0.37345306     0.15650
H695        H  0.67387565  0.19878989  0.47820719     0.15650
C696        C  0.74104133  0.25146432  0.44074320     0.37300
C697        C  0.55306830  0.13962778  0.41127192     0.37210
N698        N  0.77904341  0.27364525  0.44726573    -0.43040
N699        N  0.51504790  0.11662186  0.40500817    -0.43040
C700        C  0.55639024  0.16539533  0.55252687     0.00550
C701        C  0.59418286  0.20884681  0.55925415    -0.11330
C702        C  0.59212656  0.23619061  0.58203501     0.02780
C703        C  0.55224008  0.21944065  0.59980181     0.00460
C704        C  0.51512358  0.17544384  0.59391547    -0.11270
C705        C  0.51646364  0.14877467  0.57044099     0.02670
H706        H  0.62537107  0.22219200  0.54616359     0.15650
H707        H  0.48414766  0.16204204  0.60727817     0.15650
C708        C  0.47524401  0.10571766  0.56456743     0.37300
C709        C  0.63032978  0.28225814  0.58513078     0.37210
N710        N  0.94216143  0.07110434  0.56018462    -0.43040
N711        N  0.66077324  0.31934968  0.58725404    -0.43040
C712        C  0.55887311  0.64019057  0.52561532     0.03830
C713        C  0.58111075  0.66446028  0.49915368    -0.12320
C714        C  0.58467707  0.64208562  0.47377144     0.01330
C715        C  0.56332491  0.59440418  0.47393545    -0.10840
C716        C  0.54051372  0.56920710  0.49998772     0.03820
C717        C  0.54001298  0.59255598  0.52604155    -0.10260
H718        H  0.59644957  0.70117325  0.49820302     0.09420
H719        H  0.56623427  0.57716859  0.45427303     0.06950
H720        H  0.52452637  0.57339379  0.54654904     0.06800
C721        C  0.60767928  0.52405235  0.85646202     0.03830
C722        C  0.60721962  0.99937932  0.83120323    -0.12320
C723        C  0.57546845  0.98848540  0.80802072     0.01330
C724        C  0.54740297  0.50726867  0.80901721    -0.10840
C725        C  0.54971427  0.53484090  0.83336374     0.03820
C726        C  0.57907713  0.54191941  0.85750080    -0.10260
H727        H  0.63097271  0.98753707  0.83018722     0.09420
H728        H  0.52289160  0.99969148  0.79123264     0.06950
H729        H  0.58055596  0.56217216  0.87677451     0.06800
C730        C  0.99826461  0.94724845  0.52524333     0.03830
C731        C  0.52101004  0.99517504  0.52491733    -0.12320
C732        C  0.51731756  0.51858705  0.50001815     0.01330
C733        C  0.99024878  0.99328140  0.47541613    -0.10840
C734        C  0.96708436  0.94544036  0.47576377     0.03820
C735        C  0.97111493  0.92259526  0.50064107    -0.10260
H736        H  0.54178091  0.51418621  0.54402482     0.09420
H737        H  0.98610836  0.51066224  0.45633571     0.06950
H738        H  0.95306254  0.88560733  0.50083839     0.06800
O739        O  0.58479147  0.86132190  0.69898047    -0.57110
C740        C  0.54674731  0.74693372  0.62358861     0.75520
O741        O  0.98110712  0.73079451  0.70076638    -0.58270
C742        C  0.55292599  0.86438327  0.71167364     0.75490
C743        C  0.51504074  0.84497826  0.62367483     0.77880
Cd744      Cd  0.53147110  0.79641445  0.66831353     1.37460
O745        O  0.58051821  0.78175913  0.63583008    -0.57110
O746        O  0.55489588  0.85483330  0.63114310    -0.55920
C747        C  0.51450209  0.73031756  0.71306668     0.77840
O748        O  0.98158172  0.81157856  0.63759857    -0.58290
O749        O  0.50704736  0.73603665  0.63261770    -0.56740
O750        O  0.51206640  0.83637971  0.70389823    -0.56730
O751        O  0.55435535  0.76054309  0.70428103    -0.55900
C752        C  0.62621785  0.56660394  0.14485335     0.03830
C753        C  0.65018717  0.59014696  0.17071827    -0.12320
C754        C  0.62827572  0.59806257  0.19487277     0.01330
C755        C  0.58107152  0.58042884  0.19284807    -0.10840
C756        C  0.55601115  0.55399338  0.16796220     0.03820
C757        C  0.57901183  0.54804424  0.14371599    -0.10260
H758        H  0.68630162  0.60261767  0.17171180     0.09420
H759        H  0.56356923  0.58794990  0.21018800     0.06950
H760        H  0.56025661  0.52889759  0.12401339     0.06800
C761        C  0.93512543  0.51165579  0.14157250     0.03830
C762        C  0.98296671  0.53345518  0.14184965    -0.12320
C763        C  0.50571146  0.53191268  0.16772389     0.01330
C764        C  0.98003464  0.00754880  0.19323948    -0.10840
C765        C  0.93244844  0.98538505  0.19304767     0.03820
C766        C  0.91021908  0.98826884  0.16754708    -0.10260
H767        H  0.00251237  0.55179870  0.12196973     0.09420
H768        H  0.99693935  0.00427597  0.21284764     0.06950
H769        H  0.87343319  0.97165634  0.16791050     0.06800
O770        O  0.84549217  0.80884350  0.36482762    -0.57110
C771        C  0.73399782  0.72159152  0.29120790     0.75520
O772        O  0.71011092  0.77567669  0.36140085    -0.58270
C773        C  0.84504245  0.84116965  0.37897604     0.75490
C774        C  0.82742809  0.86024226  0.28928530     0.77880
Cd775      Cd  0.77944477  0.79240756  0.33386589     1.37460
O776        O  0.76986775  0.72734054  0.30398953    -0.57110
O777        O  0.83640282  0.82957508  0.29569069    -0.55920
C778        C  0.71169987  0.74637628  0.37840930     0.77840
O779        O  0.79510644  0.85995738  0.30400057    -0.58290
O780        O  0.71965680  0.74777944  0.29879149    -0.56740
O781        O  0.81481559  0.85024233  0.37161095    -0.56730
O782        O  0.74367707  0.73853918  0.37394942    -0.55900
C783        C  0.97354883  0.57848479  0.85988333     0.03830
C784        C  0.99848236  0.55640287  0.85950049    -0.12320
C785        C  0.52227678  0.55702507  0.83340358     0.01330
C786        C  0.52145951  0.58064596  0.80766958    -0.10840
C787        C  0.49980430  0.60609818  0.80846623     0.03820
C788        C  0.97542422  0.60419301  0.83461749    -0.10260
H789        H  0.99876655  0.53808698  0.87939176     0.09420
H790        H  0.53901151  0.58036576  0.78732293     0.06950
H791        H  0.95769497  0.62273060  0.83536099     0.06800
O792        O  0.80176171  0.99744086  0.03065082    -0.57110
C793        C  0.72478267  0.53715854  0.95379881     0.75520
O794        O  0.76623294  0.59117968  0.03340036    -0.58270
C795        C  0.83525946  0.53182975  0.04360956     0.75490
C796        C  0.85057875  0.56136541  0.95671672     0.77880
Cd797      Cd  0.78391858  0.54568475  0.00026889     1.37470
O798        O  0.71889801  0.00146581  0.96735725    -0.57110
O799        O  0.81888264  0.52127997  0.96431443    -0.55750
C800        C  0.73181658  0.55636459  0.04548854     0.77840
O801        O  0.85119776  0.59493804  0.96990744    -0.58290
O802        O  0.75719493  0.57590526  0.96252601    -0.56740
O803        O  0.84320116  0.57128792  0.03624746    -0.56730
O804        O  0.72208010  0.51723019  0.03587347    -0.55900
C805        C  0.94453738  0.57419423  0.88629845     0.00550
C806        C  0.94752680  0.61363425  0.89837272    -0.11330
C807        C  0.91801552  0.61079511  0.92150690     0.02780
C808        C  0.88465921  0.56759591  0.93323936     0.00460
C809        C  0.88260852  0.52832901  0.92155787    -0.11270
C810        C  0.91173999  0.53117611  0.89830205     0.02670
H811        H  0.97268329  0.64685535  0.88936587     0.15650
H812        H  0.85737424  0.49484445  0.93012760     0.15650
C813        C  0.90535538  0.48908847  0.88613673     0.37300
C814        C  0.92227201  0.65277419  0.93198111     0.37210
N815        N  0.90014845  0.95531962  0.87640858    -0.43040
N816        N  0.92576129  0.68652437  0.94024077    -0.43040
C817        C  0.90549462  0.95397748  0.21782285     0.00550
C818        C  0.89231946  0.96988034  0.24278844    -0.11330
C819        C  0.86630875  0.93998693  0.26637881     0.02780
C820        C  0.85346682  0.89359740  0.26500394     0.00460
C821        C  0.86749637  0.87832146  0.24013198    -0.11270
C822        C  0.89273924  0.90779534  0.21650811     0.02670
H823        H  0.90258584  0.00558334  0.24389853     0.15650
H824        H  0.85860924  0.84312749  0.23909078     0.15650
C825        C  0.90512391  0.88991033  0.19103401     0.37300
C826        C  0.85552715  0.95816605  0.29238951     0.37210
N827        N  0.91496282  0.87568433  0.17054632    -0.43040
N828        N  0.84714228  0.97273613  0.31337701    -0.43040
C829        C  0.91124047  0.51507126  0.11466748     0.00550
C830        C  0.92757926  0.55811197  0.10148678    -0.11330
C831        C  0.90461339  0.56405929  0.07762382     0.02780
C832        C  0.86338806  0.52642537  0.06678932     0.00460
C833        C  0.84817347  0.98291117  0.07902714    -0.11270
C834        C  0.87185342  0.97688590  0.10250485     0.02670
H835        H  0.95806261  0.58758640  0.11028546     0.15650
H836        H  0.81739633  0.95347309  0.07052523     0.15650
C837        C  0.85558720  0.93102518  0.11315439     0.37300
C838        C  0.92488728  0.60926373  0.06466402     0.37210
N839        N  0.84253513  0.89427497  0.12168120    -0.43040
N840        N  0.94140695  0.64548470  0.05424784    -0.43040
C841        C  0.65574105  0.62724077  0.22089662     0.00550
C842        C  0.69985549  0.66471026  0.21502367    -0.11330
C843        C  0.72715458  0.69351360  0.23814026     0.02780
C844        C  0.70983820  0.68691445  0.26775934     0.00460
C845        C  0.66616737  0.64975017  0.27405780    -0.11270
C846        C  0.63957295  0.61919009  0.25123688     0.02670
H847        H  0.71313267  0.67236072  0.19210739     0.15650
H848        H  0.65284242  0.64455146  0.29696739     0.15650
C849        C  0.59670231  0.57950802  0.26006304     0.37300
C850        C  0.77252486  0.73017215  0.23061786     0.37210
N851        N  0.56232074  0.54787621  0.26734049    -0.43040
N852        N  0.80903698  0.75883014  0.22411935    -0.43040
C853        C  0.70410953  0.56025423  0.07007121     0.00550
C854        C  0.66791144  0.51979152  0.08282481    -0.11330
C855        C  0.64175987  0.52098595  0.10683496     0.02780
C856        C  0.65148638  0.56328117  0.11865224     0.00460
C857        C  0.68706793  0.60372451  0.10582785    -0.11270
C858        C  0.71320805  0.60269316  0.08173804     0.02670
H859        H  0.66027129  0.48685073  0.07437904     0.15650
H860        H  0.69447496  0.63637204  0.11475945     0.15650
C861        C  0.74902520  0.64584251  0.06976311     0.37300
C862        C  0.60640285  0.97835129  0.11980608     0.37210
N863        N  0.77764521  0.68055248  0.06024483    -0.43040
N864        N  0.57809963  0.94422925  0.13022667    -0.43040
C865        C  0.50324313  0.63575056  0.78254689     0.00550
C866        C  0.96430929  0.63656916  0.77366537    -0.11330
C867        C  0.96670632  0.66682737  0.75129287     0.02780
C868        C  0.50862594  0.69645418  0.73656596     0.00460
C869        C  0.54725261  0.69484788  0.74501757    -0.11270
C870        C  0.54516669  0.66558295  0.76785489     0.02670
H871        H  0.93184666  0.61393337  0.78462400     0.15650
H872        H  0.57985277  0.71738281  0.73417403     0.15650
C873        C  0.58734039  0.66906744  0.77666914     0.37300
C874        C  0.92601013  0.66787279  0.74504226     0.37210
N875        N  0.62118321  0.67184737  0.78355185    -0.43040
N876        N  0.89338409  0.66884994  0.74029719    -0.43040
C877        C  0.93610456  0.91892808  0.45094626     0.00550
C878        C  0.95197495  0.90361116  0.42716034    -0.11330
C879        C  0.92296255  0.87783954  0.40348553     0.02780
C880        C  0.87727448  0.86715288  0.40354798     0.00460
C881        C  0.86174069  0.88281366  0.42744071    -0.11270
C882        C  0.89058684  0.90819321  0.45110474     0.02670
H883        H  0.98710890  0.91206332  0.42702701     0.15650
H884        H  0.82672659  0.87475864  0.42782488     0.15650
C885        C  0.87271257  0.92246518  0.47555502     0.37300
C886        C  0.94145743  0.86470878  0.37881614     0.37210
N887        N  0.85853138  0.93385842  0.49524888    -0.43040
N888        N  0.95632508  0.85437442  0.35894895    -0.43040
C889        C  0.50914765  0.87160328  0.59939188     0.00550
C890        C  0.54849449  0.90585158  0.58440997    -0.11330
C891        C  0.54569422  0.93108469  0.56059569     0.02780
C892        C  0.00282041  0.92258603  0.55122843     0.00460
C893        C  0.96342660  0.88891206  0.56625225    -0.11270
C894        C  0.96614655  0.86358191  0.59020083     0.02670
H895        H  0.58185003  0.91263743  0.59090738     0.15650
H896        H  0.93036489  0.88240461  0.55920532     0.15650
C897        C  0.92421318  0.82979122  0.60468357     0.37300
C898        C  0.58725254  0.96407482  0.54527701     0.37210
N899        N  0.89048881  0.80278273  0.61624157    -0.43040
N900        N  0.62051116  0.99052421  0.53299002    -0.43040
C901        C  0.57126639  0.95698428  0.78315680     0.00550
C902        C  0.56456704  0.96647942  0.75329911    -0.11330
C903        C  0.55902064  0.93692610  0.72956831     0.02780
C904        C  0.56222627  0.89823177  0.73524645     0.00460
C905        C  0.56921678  0.88865718  0.76471750    -0.11270
C906        C  0.57263579  0.91682549  0.78872748     0.02670
H907        H  0.56322986  0.99679716  0.74845947     0.15650
H908        H  0.56986028  0.85782793  0.76917479     0.15650
C909        C  0.57432546  0.90164980  0.81889841     0.37300
C910        C  0.54911892  0.94630153  0.69967863     0.37210
N911        N  0.57577195  0.88949613  0.84304678    -0.43040
N912        N  0.54079626  0.95340290  0.67573157    -0.43040
C913        C  0.63706437  0.52919791  0.88223383     0.00550
C914        C  0.68441499  0.55702412  0.87890617    -0.11330
C915        C  0.71352881  0.56003820  0.90199512     0.02780
C916        C  0.69517150  0.53420455  0.92878382     0.00460
C917        C  0.64768113  0.00609071  0.93201288    -0.11270
C918        C  0.61856301  0.00376399  0.90910370     0.02670
H919        H  0.69861953  0.57603170  0.85806217     0.15650
H920        H  0.63338707  0.98637877  0.95259595     0.15650
C921        C  0.56998054  0.97425220  0.91327463     0.37300
C922        C  0.76212923  0.58820675  0.89706855     0.37210
N923        N  0.53102434  0.95068712  0.91658356    -0.43040
N924        N  0.80106485  0.61064885  0.89308543    -0.43040
C925        C  0.67855886  0.72242644  0.40297243     0.00550
C926        C  0.63198338  0.69514710  0.39641103    -0.11330
C927        C  0.60051321  0.66819204  0.41902297     0.02780
C928        C  0.61567177  0.66951004  0.44877784     0.00460
C929        C  0.66207655  0.69770790  0.45534074    -0.11270
C930        C  0.69354260  0.72362567  0.43273971     0.02670
H931        H  0.62044751  0.69377024  0.37344946     0.15650
H932        H  0.67387411  0.69880435  0.47820531     0.15650
C933        C  0.74104098  0.75147155  0.44074019     0.37300
C934        C  0.55306766  0.63963813  0.41126919     0.37210
N935        N  0.77904322  0.77365066  0.44726270    -0.43040
N936        N  0.51504736  0.61663182  0.40500530    -0.43040
C937        C  0.55638775  0.66540595  0.55252612     0.00550
C938        C  0.59418027  0.70885700  0.55925435    -0.11330
C939        C  0.59212484  0.73619837  0.58203748     0.02780
C940        C  0.55223928  0.71944650  0.59980567     0.00460
C941        C  0.51512238  0.67545053  0.59391772    -0.11270
C942        C  0.51646162  0.64878379  0.57044107     0.02670
H943        H  0.62536808  0.72220355  0.54616319     0.15650
H944        H  0.48414692  0.66204732  0.60728108     0.15650
C945        C  0.47524175  0.60572746  0.56456649     0.37300
C946        C  0.63032839  0.78226541  0.58513456     0.37210
N947        N  0.94215912  0.57111455  0.56018296    -0.43040
N948        N  0.66077214  0.81935661  0.58725891    -0.43040
loop_ 
_geom_bond_atom_site_label_1 
_geom_bond_atom_site_label_2 
_geom_bond_distance 
_geom_bond_site_symmetry_2 
_ccdc_geom_bond_type 
C1            C2   1.406       .  A
C1            C6   1.409       .  A
C1          C226   1.498       .  S
C2            C3   1.399       .  A
C2            H7   1.083       .  S
C3            C4   1.401       .  A
C3          C217   1.479       .  S
C4            C5   1.405       .  A
C4            H8   1.084       .  S
C5            C6   1.408       .  A
C5           C21   1.486       .  S
C6            H9   1.081       .  S
C10          C15   1.400       .  A
C10         C248   1.397   1_545  A
C10         C202   1.476       .  S
C11          C12   1.404       .  A
C11         C247   1.397       .  A
C11          H16   1.082       .  S
C12         C250   1.409       .  A
C12         C190   1.495       .  S
C13          C14   1.408       .  A
C13         C249   1.409   1_545  A
C13         H254   1.083   1_545  S
C14          C15   1.406       .  A
C14          C74   1.484       .  S
C15          H18   1.084       .  S
H17         C250   1.083       .  S
C19          C24   1.402       .  A
C19         C494   1.405       .  A
C19         C181   1.483       .  S
C20         C493   1.405   1_455  A
C20         C258   1.406       .  A
C20         H262   1.084       .  S
C21         C257   1.406   1_545  A
C21         C733   1.407   1_445  A
C22          C23   1.402       .  A
C22         C732   1.407       .  A
C22         H263   1.084       .  S
C23          C24   1.399       .  A
C23         C166   1.475       .  S
C24          H27   1.084       .  S
H25         C257   1.084   1_545  S
H26         C259   1.084   1_545  S
O28          C31   1.277       .  A
O28         Cd33   2.439       .  S
C29         C229   1.486       .  S
C29          O38   1.273       .  A
C29          O34   1.279       .  A
O30         C510   1.279       .  A
O30        Cd507   2.458       .  S
C31         C193   1.468       .  S
C31          O39   1.272       .  A
C32         C178   1.490       .  S
C32          O35   1.273       .  A
C32         O511   1.279   1_455  A
Cd33         O40   2.381       .  S
Cd33         O39   2.392       .  S
Cd33         O38   2.386       .  S
Cd33         O34   2.448       .  S
Cd33         O35   2.381       .  S
Cd33        O504   2.458   1_455  S
Cd33        O511   2.449   1_455  S
C36         C157   1.490       .  S
C36          O40   1.272       .  A
C36         O504   1.279   1_455  A
O37         C506   1.279       .  A
O37        Cd507   2.449       .  S
C41          C42   1.401       .  A
C41          C46   1.401       .  A
C41         C145   1.483       .  S
C42          C43   1.408       .  A
C42          H47   1.083       .  S
C43          C44   1.409       .  A
C43         C130   1.500       .  S
C44          C45   1.406       .  A
C44          H48   1.082       .  S
C45          C46   1.404       .  A
C45          C52   1.483       .  S
C46          H49   1.084       .  S
C50          C51   1.408       .  A
C50         C292   1.404   1_545  A
C50         C118   1.488       .  S
C51         C526   1.406       .  A
C51          H56   1.084       .  S
C52         C525   1.406   1_455  A
C52         C764   1.404   1_455  A
C53          C54   1.399       .  A
C53         C763   1.404       .  A
C53          H57   1.084       .  S
C54          C55   1.398       .  A
C54         C106   1.473       .  S
C55         C287   1.404       .  A
C55          H58   1.083       .  S
O59          C62   1.278       .  A
O59         Cd64   2.459       .  S
C60         C133   1.471       .  S
C60          O69   1.270       .  A
C60          O65   1.277       .  A
O61          C67   1.278       .  A
O61         Cd64   2.454       .  S
C62         C169   1.481       .  S
C62          O70   1.271       .  A
C63         C109   1.479       .  S
C63          O68   1.278       .  A
C63          O66   1.270       .  A
Cd64         O71   2.383       .  S
Cd64         O70   2.392       .  S
Cd64         O69   2.397       .  S
Cd64         O65   2.462       .  S
Cd64         O68   2.467       .  S
Cd64         O66   2.382       .  S
C67         C214   1.471       .  S
C67          O71   1.271       .  A
C72          C73   1.404       .  A
C72          C77   1.403       .  A
C72          C94   1.487       .  S
C73         C548   1.404       .  A
C73          H78   1.084       .  S
C74          C75   1.405       .  A
C74         C547   1.404   1_455  A
C75          C76   1.408   1_455  A
C75          H79   1.083       .  S
C76         C551   1.405       .  A
C76         C154   1.495   1_655  S
C77         C550   1.405       .  A
C77          H80   1.083       .  S
O81         C321   1.281       .  A
O81        Cd323   2.443       .  S
C82         C205   1.475       .  S
C82          O91   1.274       .  A
C82         O324   1.279       .  A
O83          C89   1.279       .  A
O83         Cd86   2.431       .  S
C84         C121   1.488       .  S
C84          O92   1.274       .  A
C84         O318   1.281   1_545  A
C85          C97   1.489       .  S
C85          O90   1.279       .  A
C85          O88   1.276       .  A
Cd86         O93   2.398       .  S
Cd86         O92   2.374       .  S
Cd86         O91   2.388   1_554  S
Cd86         O90   2.430   1_554  S
Cd86         O88   2.383   1_554  S
Cd86        O318   2.443   1_545  S
Cd86        O324   2.434   1_554  S
O87         C319   1.279       .  A
O87        Cd323   2.434   1_556  S
C89         C142   1.491       .  S
C89          O93   1.275       .  A
C94          C95   1.405       .  A
C94          C99   1.412       .  A
C95          C96   1.403       .  A
C95         H100   1.084       .  S
C96          C97   1.416       .  A
C96         C103   1.444       .  S
C97          C98   1.407       .  A
C98          C99   1.398       .  A
C98         H101   1.084   1_545  S
C99         C102   1.445   1_545  S
C102        N341   1.157       .  T
C103        N105   1.157       .  T
N104        C339   1.157       .  T
C106        C107   1.403       .  A
C106        C111   1.406       .  A
C107        C108   1.406       .  A
C107        H112   1.084       .  S
C108        C109   1.412       .  A
C108        C115   1.443       .  S
C109        C110   1.404       .  A
C110        C111   1.394       .  A
C110        H113   1.080       .  S
C111        C114   1.445       .  S
C114        N116   1.157       .  T
C115        N117   1.157       .  T
C118        C119   1.402       .  A
C118        C360   1.415   1_545  A
C119        C120   1.398       .  A
C119        H124   1.084       .  S
C120        C121   1.418       .  A
C120        C127   1.445       .  S
C121        C359   1.406   1_545  A
C122        C123   1.402       .  A
C122        C358   1.406       .  A
C122        H125   1.084       .  S
C123        C355   1.415       .  A
C123        C126   1.445       .  S
C126        N128   1.157       .  T
C127        N129   1.157       .  T
C130        C131   1.410       .  A
C130        C135   1.421       .  A
C131        C132   1.397       .  A
C131        H136   1.084       .  S
C132        C133   1.405       .  A
C132        C139   1.442       .  S
C133        C134   1.400       .  A
C134        C135   1.404       .  A
C134        H137   1.086       .  S
C135        C138   1.444       .  S
C138        N140   1.157       .  T
C139        N141   1.156       .  T
C142        C143   1.410       .  A
C142        C147   1.416       .  A
C143        C144   1.400       .  A
C143        H148   1.084   1_545  S
C144        C145   1.408       .  A
C144        C388   1.444   1_545  S
C145        C146   1.403       .  A
C146        C147   1.401       .  A
C146        H149   1.085       .  S
C147        C150   1.444       .  S
C150        N152   1.157       .  T
C151        C381   1.444       .  S
C151        N153   1.157       .  T
C154        C159   1.415       .  A
C154        C629   1.409   1_455  A
C155        C156   1.404       .  A
C155        C628   1.409       .  A
C155        H160   1.084       .  S
C156        C631   1.414       .  A
C156        C163   1.443       .  S
C157        C158   1.407       .  A
C157        C630   1.414   1_455  A
C158        C159   1.398       .  A
C158        H161   1.084       .  S
C159        C162   1.445       .  S
C162        N164   1.157       .  T
C163        N165   1.157       .  T
C166        C167   1.403       .  A
C166        C171   1.407       .  A
C167        C168   1.404       .  A
C167        H172   1.084       .  S
C168        C169   1.413       .  A
C168        C175   1.443       .  S
C169        C170   1.406       .  A
C170        C171   1.398       .  A
C170        H173   1.084       .  S
C171        C174   1.445       .  S
C174        N176   1.157       .  T
C175        N177   1.157       .  T
C178        C179   1.409       .  A
C178        C657   1.416   1_455  A
C179        C180   1.397       .  A
C179        H184   1.084       .  S
C180        C655   1.409       .  A
C180        C187   1.445       .  S
C181        C182   1.404       .  A
C181        C654   1.409       .  A
C182        C183   1.403       .  A
C182        H185   1.084       .  S
C183        C652   1.416       .  A
C183        C186   1.443       .  S
C186        N188   1.157       .  T
C187        N189   1.157       .  T
C190        C191   1.409       .  A
C190        C195   1.421       .  A
C191        C192   1.402       .  A
C191        H196   1.083       .  S
C192        C193   1.407       .  A
C192        C199   1.445       .  S
C193        C194   1.397       .  A
C194        C195   1.399       .  A
C194        H197   1.085       .  S
C195        C198   1.445       .  S
C198        N200   1.157       .  T
C199        N201   1.157       .  T
C202        C203   1.401       .  A
C202        C444   1.411       .  A
C203        C204   1.400       .  A
C203        H208   1.085       .  S
C204        C205   1.413       .  A
C204        C211   1.445       .  S
C205        C443   1.402       .  A
C206        C207   1.401       .  A
C206        C442   1.402       .  A
C206        H209   1.085       .  S
C207        C439   1.411       .  A
C207        C210   1.444       .  S
C210        N212   1.157       .  T
C211        N213   1.157       .  T
C214        C215   1.404       .  A
C214        C219   1.410       .  A
C215        C216   1.405       .  A
C215        H220   1.085       .  S
C216        C217   1.411       .  A
C216        C223   1.443       .  S
C217        C218   1.402       .  A
C218        C219   1.395       .  A
C218        H221   1.086       .  S
C219        C222   1.445       .  S
C222        N224   1.157       .  T
C223        N225   1.157       .  T
C226        C227   1.411       .  A
C226        C231   1.417       .  A
C227        C228   1.402       .  A
C227        H232   1.084       .  S
C228        C229   1.412       .  A
C228        C235   1.444       .  S
C229        C230   1.406       .  A
C230        C231   1.399       .  A
C230        H233   1.085   1_455  S
C231        C234   1.444   1_455  S
C234        N710   1.157       .  T
C235        N237   1.157       .  T
N236        C708   1.157       .  T
C238        C239   1.406       .  A
C238        C243   1.409       .  A
C238        C463   1.498       .  S
C239        C240   1.399       .  A
C239        H244   1.083       .  S
C240        C241   1.401       .  A
C240        C454   1.479       .  S
C241        C242   1.405       .  A
C241        H245   1.084       .  S
C242        C243   1.408       .  A
C242        C258   1.486       .  S
C243        H246   1.081       .  S
C247        C252   1.400       .  A
C247        C439   1.476       .  S
C248        C249   1.404       .  A
C248        H253   1.082       .  S
C249        C427   1.495       .  S
C250        C251   1.408       .  A
C251        C252   1.406       .  A
C251        C311   1.484       .  S
C252        H255   1.084       .  S
C256        C731   1.405       .  A
C256        C261   1.402       .  A
C256        C418   1.483       .  S
C257        C730   1.405   1_455  A
C258        C496   1.407   1_455  A
C259        C495   1.407   1_565  A
C259        C260   1.402       .  A
C260        C261   1.399       .  A
C260        C403   1.475       .  S
C261        H264   1.084       .  S
O265        C268   1.277       .  A
O265       Cd270   2.439       .  S
C266        C466   1.486       .  S
C266        O275   1.273       .  A
C266        O271   1.279       .  A
O267        C747   1.279       .  A
O267       Cd744   2.458       .  S
C268        C430   1.468       .  S
C268        O276   1.272       .  A
C269        C415   1.490       .  S
C269        O748   1.279   1_455  A
C269        O272   1.273       .  A
Cd270       O741   2.458   1_455  S
Cd270       O277   2.381       .  S
Cd270       O276   2.392       .  S
Cd270       O275   2.386       .  S
Cd270       O271   2.448       .  S
Cd270       O748   2.449   1_455  S
Cd270       O272   2.381       .  S
C273        C394   1.490       .  S
C273        O741   1.279   1_455  A
C273        O277   1.272       .  A
O274        C743   1.279       .  A
O274       Cd744   2.449       .  S
C278        C279   1.401       .  A
C278        C283   1.401       .  A
C278        C382   1.483       .  S
C279        C280   1.408       .  A
C279        H284   1.083       .  S
C280        C281   1.409       .  A
C280        C367   1.500       .  S
C281        C282   1.406       .  A
C281        H285   1.082       .  S
C282        C283   1.404       .  A
C282        C289   1.483       .  S
C283        H286   1.084       .  S
C287        C288   1.408       .  A
C287        C355   1.488       .  S
C288        C763   1.406       .  A
C288        H293   1.084       .  S
C289        C762   1.406   1_455  A
C289        C527   1.404   1_455  A
C290        C526   1.404       .  A
C290        C291   1.399   1_545  A
C290        H294   1.084       .  S
C291        C292   1.398       .  A
C291        C343   1.473       .  S
C292        H295   1.083       .  S
O296        C299   1.278       .  A
O296       Cd301   2.459       .  S
C297        C370   1.471       .  S
C297        O306   1.270       .  A
C297        O302   1.277       .  A
O298        C304   1.278       .  A
O298       Cd301   2.454       .  S
C299        C406   1.481       .  S
C299        O307   1.271       .  A
C300        C346   1.479       .  S
C300        O305   1.278       .  A
C300        O303   1.270       .  A
Cd301       O308   2.383       .  S
Cd301       O307   2.392       .  S
Cd301       O306   2.397       .  S
Cd301       O302   2.462       .  S
Cd301       O305   2.467       .  S
Cd301       O303   2.382       .  S
C304        C451   1.471       .  S
C304        O308   1.271       .  A
C309        C310   1.404       .  A
C309        C314   1.403       .  A
C309        C331   1.487       .  S
C310        C785   1.404       .  A
C310        H315   1.084       .  S
C311        C784   1.404   1_455  A
C311        C312   1.405       .  A
C312        C313   1.408   1_455  A
C312        H316   1.083       .  S
C313        C788   1.405       .  A
C313        C391   1.495   1_655  S
C314        C787   1.405       .  A
C314        H317   1.083       .  S
C319        C442   1.475       .  S
C319        O328   1.274       .  A
O320        C326   1.279       .  A
O320       Cd323   2.431       .  S
C321        C358   1.488       .  S
C321        O329   1.274       .  A
C322        C334   1.489       .  S
C322        O327   1.279       .  A
C322        O325   1.276       .  A
Cd323       O330   2.398       .  S
Cd323       O329   2.374       .  S
Cd323       O328   2.388   1_554  S
Cd323       O327   2.430   1_554  S
Cd323       O325   2.383   1_554  S
C326        C379   1.491       .  S
C326        O330   1.275       .  A
C331        C332   1.405       .  A
C331        C336   1.412       .  A
C332        C333   1.403       .  A
C332        H337   1.084       .  S
C333        C334   1.416       .  A
C333        C340   1.444       .  S
C334        C335   1.407       .  A
C335        C336   1.398       .  A
C335        H338   1.084       .  S
C336        C339   1.445       .  S
C340        N342   1.157       .  T
C343        C344   1.403       .  A
C343        C348   1.406       .  A
C344        C345   1.406       .  A
C344        H349   1.084   1_565  S
C345        C346   1.412       .  A
C345        C352   1.443       .  S
C346        C347   1.404       .  A
C347        C348   1.394       .  A
C347        H350   1.080       .  S
C348        C351   1.445       .  S
C351        N353   1.157       .  T
C352        N354   1.157       .  T
C355        C356   1.402       .  A
C356        C357   1.398       .  A
C356        H361   1.084       .  S
C357        C358   1.418       .  A
C357        C364   1.445       .  S
C359        C360   1.402       .  A
C359        H362   1.084       .  S
C360        C363   1.445       .  S
C363        N365   1.157       .  T
C364        N366   1.157       .  T
C367        C368   1.410       .  A
C367        C372   1.421       .  A
C368        C369   1.397       .  A
C368        H373   1.084       .  S
C369        C370   1.405       .  A
C369        C376   1.442       .  S
C370        C371   1.400       .  A
C371        C372   1.404       .  A
C371        H374   1.086       .  S
C372        C375   1.444       .  S
C375        N377   1.157       .  T
C376        N378   1.156       .  T
C379        C380   1.410       .  A
C379        C384   1.416       .  A
C380        C381   1.400       .  A
C380        H385   1.084       .  S
C381        C382   1.408       .  A
C382        C383   1.403       .  A
C383        C384   1.401       .  A
C383        H386   1.085       .  S
C384        C387   1.444       .  S
C387        N389   1.157       .  T
C388        N390   1.157       .  T
C391        C866   1.409   1_455  A
C391        C396   1.415       .  A
C392        C865   1.409       .  A
C392        C393   1.404       .  A
C392        H397   1.084       .  S
C393        C868   1.414       .  A
C393        C400   1.443       .  S
C394        C867   1.414   1_455  A
C394        C395   1.407       .  A
C395        C396   1.398       .  A
C395        H398   1.084       .  S
C396        C399   1.445       .  S
C399        N401   1.157       .  T
C400        N402   1.157       .  T
C403        C404   1.403       .  A
C403        C408   1.407       .  A
C404        C405   1.404       .  A
C404        H409   1.084       .  S
C405        C406   1.413       .  A
C405        C412   1.443       .  S
C406        C407   1.406       .  A
C407        C408   1.398       .  A
C407        H410   1.084       .  S
C408        C411   1.445       .  S
C411        N413   1.157       .  T
C412        N414   1.157       .  T
C415        C416   1.409       .  A
C415        C894   1.416   1_455  A
C416        C417   1.397       .  A
C416        H421   1.084       .  S
C417        C892   1.409       .  A
C417        C424   1.445       .  S
C418        C891   1.409       .  A
C418        C419   1.404       .  A
C419        C420   1.403       .  A
C419        H422   1.084       .  S
C420        C889   1.416       .  A
C420        C423   1.443       .  S
C423        N425   1.157       .  T
C424        N426   1.157       .  T
C427        C428   1.409       .  A
C427        C432   1.421       .  A
C428        C429   1.402       .  A
C428        H433   1.083       .  S
C429        C430   1.407       .  A
C429        C436   1.445       .  S
C430        C431   1.397       .  A
C431        C432   1.399       .  A
C431        H434   1.085       .  S
C432        C435   1.445       .  S
C435        N437   1.157       .  T
C436        N438   1.157       .  T
C439        C440   1.401       .  A
C440        C441   1.400       .  A
C440        H445   1.085       .  S
C441        C442   1.413       .  A
C441        C448   1.445       .  S
C443        C444   1.401       .  A
C443        H446   1.085   1_545  S
C444        C447   1.444   1_545  S
C447        N449   1.157       .  T
C448        N450   1.157       .  T
C451        C452   1.404       .  A
C451        C456   1.410       .  A
C452        C453   1.405       .  A
C452        H457   1.085       .  S
C453        C454   1.411       .  A
C453        C460   1.443       .  S
C454        C455   1.402       .  A
C455        C456   1.395       .  A
C455        H458   1.086       .  S
C456        C459   1.445       .  S
C459        N461   1.157       .  T
C460        N462   1.157       .  T
C463        C464   1.411       .  A
C463        C468   1.417       .  A
C464        C465   1.402       .  A
C464        H469   1.084       .  S
C465        C466   1.412       .  A
C465        C472   1.444       .  S
C466        C467   1.406       .  A
C467        C468   1.399       .  A
C467        H470   1.085   1_455  S
C468        C471   1.444   1_455  S
C471        N947   1.157       .  T
C472        N474   1.157       .  T
N473        C945   1.157       .  T
C475        C476   1.406       .  A
C475        C480   1.409       .  A
C475        C700   1.498       .  S
C476        C477   1.399       .  A
C476        H481   1.083       .  S
C477        C478   1.401       .  A
C477        C691   1.479       .  S
C478        C479   1.405       .  A
C478        H482   1.084       .  S
C479        C480   1.408       .  A
C479        C495   1.486       .  S
C480        H483   1.081       .  S
C484        C722   1.397   1_545  A
C484        C489   1.400       .  A
C484        C676   1.476       .  S
C485        C721   1.397       .  A
C485        C486   1.404       .  A
C485        H490   1.082       .  S
C486        C724   1.409       .  A
C486        C664   1.495       .  S
C487        C723   1.409   1_545  A
C487        C488   1.408       .  A
C487        H728   1.083   1_545  S
C488        C489   1.406       .  A
C488        C548   1.484       .  S
C489        H492   1.084       .  S
H491        C724   1.083       .  S
C493        C498   1.402       .  A
C493        C655   1.483   1_655  S
C494        C732   1.406       .  A
C494        H736   1.084       .  S
C495        C731   1.406   1_545  A
C496        C497   1.402       .  A
C496        H737   1.084       .  S
C497        C498   1.399       .  A
C497        C640   1.475       .  S
C498        H501   1.084       .  S
H499        C731   1.084   1_545  S
H500        C733   1.084   1_545  S
O502        C505   1.277       .  A
O502       Cd507   2.439       .  S
C503        C703   1.486       .  S
C503        O512   1.273       .  A
C503        O508   1.279       .  A
C505        C667   1.468       .  S
C505        O513   1.272       .  A
C506        C652   1.490       .  S
C506        O509   1.273       .  A
Cd507       O514   2.381       .  S
Cd507       O513   2.392       .  S
Cd507       O512   2.386       .  S
Cd507       O508   2.448       .  S
Cd507       O509   2.381       .  S
C510        C631   1.490       .  S
C510        O514   1.272       .  A
C515        C516   1.401       .  A
C515        C520   1.401       .  A
C515        C619   1.483       .  S
C516        C517   1.408       .  A
C516        H521   1.083       .  S
C517        C518   1.409       .  A
C517        C604   1.500       .  S
C518        C519   1.406       .  A
C518        H522   1.082       .  S
C519        C520   1.404       .  A
C519        C526   1.483       .  S
C520        H523   1.084       .  S
C524        C525   1.408       .  A
C524        C766   1.404   1_545  A
C524        C592   1.488       .  S
C525        H530   1.084   1_655  S
C527        C528   1.399       .  A
C527        H531   1.084       .  S
C528        C529   1.398       .  A
C528        C580   1.473       .  S
C529        C761   1.404       .  A
C529        H532   1.083       .  S
O533        C536   1.278       .  A
O533       Cd538   2.459       .  S
C534        C607   1.471       .  S
C534        O543   1.270       .  A
C534        O539   1.277       .  A
O535        C541   1.278       .  A
O535       Cd538   2.454       .  S
C536        C643   1.481       .  S
C536        O544   1.271       .  A
C537        C583   1.479       .  S
C537        O542   1.278       .  A
C537        O540   1.270       .  A
Cd538       O545   2.383       .  S
Cd538       O544   2.392       .  S
Cd538       O543   2.397       .  S
Cd538       O539   2.462       .  S
Cd538       O542   2.467       .  S
Cd538       O540   2.382       .  S
C541        C688   1.471       .  S
C541        O545   1.271       .  A
C546        C547   1.404       .  A
C546        C551   1.403       .  A
C546        C568   1.487       .  S
C547        H552   1.084       .  S
C548        C549   1.405       .  A
C549        C550   1.408       .  A
C549        H553   1.083       .  S
C550        C628   1.495       .  S
C551        H554   1.083       .  S
O555        C795   1.281       .  A
O555       Cd797   2.443       .  S
C556        C679   1.475       .  S
C556        O565   1.274       .  A
C556        O798   1.279       .  A
O557        C563   1.279       .  A
O557       Cd560   2.431       .  S
C558        C595   1.488       .  S
C558        O792   1.281   1_545  A
C558        O566   1.274       .  A
C559        C571   1.489       .  S
C559        O564   1.279       .  A
C559        O562   1.276       .  A
Cd560       O792   2.443   1_545  S
Cd560       O567   2.398       .  S
Cd560       O566   2.374       .  S
Cd560       O565   2.388   1_554  S
Cd560       O798   2.434   1_554  S
Cd560       O564   2.430   1_554  S
Cd560       O562   2.383   1_554  S
O561        C793   1.279       .  A
O561       Cd797   2.434   1_556  S
C563        C616   1.491       .  S
C563        O567   1.275       .  A
C568        C569   1.405       .  A
C568        C573   1.412       .  A
C569        C570   1.403       .  A
C569        H574   1.084       .  S
C570        C571   1.416       .  A
C570        C577   1.444       .  S
C571        C572   1.407       .  A
C572        C573   1.398       .  A
C572        H575   1.084   1_545  S
C573        C576   1.445   1_545  S
C576        N815   1.157       .  T
C577        N579   1.157       .  T
N578        C813   1.157       .  T
C580        C581   1.403       .  A
C580        C585   1.406       .  A
C581        C582   1.406       .  A
C581        H586   1.084       .  S
C582        C583   1.412       .  A
C582        C589   1.443       .  S
C583        C584   1.404       .  A
C584        C585   1.394       .  A
C584        H587   1.080       .  S
C585        C588   1.445       .  S
C588        N590   1.157       .  T
C589        N591   1.157       .  T
C592        C593   1.402       .  A
C592        C834   1.415   1_545  A
C593        C594   1.398       .  A
C593        H598   1.084       .  S
C594        C595   1.418       .  A
C594        C601   1.445       .  S
C595        C833   1.406   1_545  A
C596        C832   1.406       .  A
C596        C597   1.402       .  A
C596        H599   1.084       .  S
C597        C829   1.415       .  A
C597        C600   1.445       .  S
C600        N602   1.157       .  T
C601        N603   1.157       .  T
C604        C605   1.410       .  A
C604        C609   1.421       .  A
C605        C606   1.397       .  A
C605        H610   1.084       .  S
C606        C607   1.405       .  A
C606        C613   1.442       .  S
C607        C608   1.400       .  A
C608        C609   1.404       .  A
C608        H611   1.086       .  S
C609        C612   1.444       .  S
C612        N614   1.157       .  T
C613        N615   1.156       .  T
C616        C617   1.410       .  A
C616        C621   1.416       .  A
C617        C618   1.400       .  A
C617        H622   1.084   1_545  S
C618        C619   1.408       .  A
C618        C862   1.444   1_545  S
C619        C620   1.403       .  A
C620        C621   1.401       .  A
C620        H623   1.085       .  S
C621        C624   1.444       .  S
C624        N626   1.157       .  T
C625        C855   1.444       .  S
C625        N627   1.157       .  T
C628        C633   1.415       .  A
C629        C630   1.404       .  A
C629        H634   1.084       .  S
C630        C637   1.443       .  S
C631        C632   1.407       .  A
C632        C633   1.398       .  A
C632        H635   1.084       .  S
C633        C636   1.445       .  S
C636        N638   1.157       .  T
C637        N639   1.157       .  T
C640        C641   1.403       .  A
C640        C645   1.407       .  A
C641        C642   1.404       .  A
C641        H646   1.084       .  S
C642        C643   1.413       .  A
C642        C649   1.443       .  S
C643        C644   1.406       .  A
C644        C645   1.398       .  A
C644        H647   1.084       .  S
C645        C648   1.445       .  S
C648        N650   1.157       .  T
C649        N651   1.157       .  T
C652        C653   1.409       .  A
C653        C654   1.397       .  A
C653        H658   1.084       .  S
C654        C661   1.445       .  S
C655        C656   1.404   1_455  A
C656        C657   1.403       .  A
C656        H659   1.084       .  S
C657        C660   1.443       .  S
C660        N662   1.157       .  T
C661        N663   1.157       .  T
C664        C665   1.409       .  A
C664        C669   1.421       .  A
C665        C666   1.402       .  A
C665        H670   1.083       .  S
C666        C667   1.407       .  A
C666        C673   1.445       .  S
C667        C668   1.397       .  A
C668        C669   1.399       .  A
C668        H671   1.085       .  S
C669        C672   1.445       .  S
C672        N674   1.157       .  T
C673        N675   1.157       .  T
C676        C677   1.401       .  A
C676        C918   1.411       .  A
C677        C678   1.400       .  A
C677        H682   1.085       .  S
C678        C679   1.413       .  A
C678        C685   1.445       .  S
C679        C917   1.402       .  A
C680        C916   1.402       .  A
C680        C681   1.401       .  A
C680        H683   1.085       .  S
C681        C913   1.411       .  A
C681        C684   1.444       .  S
C684        N686   1.157       .  T
C685        N687   1.157       .  T
C688        C689   1.404       .  A
C688        C693   1.410       .  A
C689        C690   1.405       .  A
C689        H694   1.085       .  S
C690        C691   1.411       .  A
C690        C697   1.443       .  S
C691        C692   1.402       .  A
C692        C693   1.395       .  A
C692        H695   1.086       .  S
C693        C696   1.445       .  S
C696        N698   1.157       .  T
C697        N699   1.157       .  T
C700        C701   1.411       .  A
C700        C705   1.417       .  A
C701        C702   1.402       .  A
C701        H706   1.084       .  S
C702        C703   1.412       .  A
C702        C709   1.444       .  S
C703        C704   1.406       .  A
C704        C705   1.399       .  A
C704        H707   1.085       .  S
C705        C708   1.444       .  S
C709        N711   1.157       .  T
C712        C713   1.406       .  A
C712        C717   1.409       .  A
C712        C937   1.498       .  S
C713        C714   1.399       .  A
C713        H718   1.083       .  S
C714        C715   1.401       .  A
C714        C928   1.479       .  S
C715        C716   1.405       .  A
C715        H719   1.084       .  S
C716        C717   1.408       .  A
C716        C732   1.486       .  S
C717        H720   1.081       .  S
C721        C726   1.400       .  A
C721        C913   1.476       .  S
C722        C723   1.404       .  A
C722        H727   1.082       .  S
C723        C901   1.495       .  S
C724        C725   1.408       .  A
C725        C726   1.406       .  A
C725        C785   1.484       .  S
C726        H729   1.084       .  S
C730        C735   1.402       .  A
C730        C892   1.483   1_655  S
C733        C734   1.402       .  A
C734        C735   1.399       .  A
C734        C877   1.475       .  S
C735        H738   1.084       .  S
O739        C742   1.277       .  A
O739       Cd744   2.439       .  S
C740        C940   1.486       .  S
C740        O749   1.273       .  A
C740        O745   1.279       .  A
C742        C904   1.468       .  S
C742        O750   1.272       .  A
C743        C889   1.490       .  S
C743        O746   1.273       .  A
Cd744       O751   2.381       .  S
Cd744       O750   2.392       .  S
Cd744       O749   2.386       .  S
Cd744       O745   2.448       .  S
Cd744       O746   2.381       .  S
C747        C868   1.490       .  S
C747        O751   1.272       .  A
C752        C753   1.401       .  A
C752        C757   1.401       .  A
C752        C856   1.483       .  S
C753        C754   1.408       .  A
C753        H758   1.083       .  S
C754        C755   1.409       .  A
C754        C841   1.500       .  S
C755        C756   1.406       .  A
C755        H759   1.082       .  S
C756        C757   1.404       .  A
C756        C763   1.483       .  S
C757        H760   1.084       .  S
C761        C762   1.408       .  A
C761        C829   1.488       .  S
C762        H767   1.084   1_655  S
C764        C765   1.399   1_545  A
C764        H768   1.084       .  S
C765        C766   1.398       .  A
C765        C817   1.473       .  S
C766        H769   1.083       .  S
O770        C773   1.278       .  A
O770       Cd775   2.459       .  S
C771        C844   1.471       .  S
C771        O780   1.270       .  A
C771        O776   1.277       .  A
O772        C778   1.278       .  A
O772       Cd775   2.454       .  S
C773        C880   1.481       .  S
C773        O781   1.271       .  A
C774        C820   1.479       .  S
C774        O779   1.278       .  A
C774        O777   1.270       .  A
Cd775       O782   2.383       .  S
Cd775       O781   2.392       .  S
Cd775       O780   2.397       .  S
Cd775       O776   2.462       .  S
Cd775       O779   2.467       .  S
Cd775       O777   2.382       .  S
C778        C925   1.471       .  S
C778        O782   1.271       .  A
C783        C784   1.404       .  A
C783        C788   1.403       .  A
C783        C805   1.487       .  S
C784        H789   1.084       .  S
C785        C786   1.405       .  A
C786        C787   1.408       .  A
C786        H790   1.083       .  S
C787        C865   1.495       .  S
C788        H791   1.083       .  S
C793        C916   1.475       .  S
C793        O802   1.274       .  A
O794        C800   1.279       .  A
O794       Cd797   2.431       .  S
C795        C832   1.488       .  S
C795        O803   1.274       .  A
C796        C808   1.489       .  S
C796        O801   1.279       .  A
C796        O799   1.276       .  A
Cd797       O804   2.398       .  S
Cd797       O803   2.374       .  S
Cd797       O802   2.388   1_554  S
Cd797       O801   2.430   1_554  S
Cd797       O799   2.383   1_554  S
C800        C853   1.491       .  S
C800        O804   1.275       .  A
C805        C806   1.405       .  A
C805        C810   1.412       .  A
C806        C807   1.403       .  A
C806        H811   1.084       .  S
C807        C808   1.416       .  A
C807        C814   1.444       .  S
C808        C809   1.407       .  A
C809        C810   1.398       .  A
C809        H812   1.084       .  S
C810        C813   1.445       .  S
C814        N816   1.157       .  T
C817        C818   1.403       .  A
C817        C822   1.406       .  A
C818        C819   1.406       .  A
C818        H823   1.084   1_565  S
C819        C820   1.412       .  A
C819        C826   1.443       .  S
C820        C821   1.404       .  A
C821        C822   1.394       .  A
C821        H824   1.080       .  S
C822        C825   1.445       .  S
C825        N827   1.157       .  T
C826        N828   1.157       .  T
C829        C830   1.402       .  A
C830        C831   1.398       .  A
C830        H835   1.084       .  S
C831        C832   1.418       .  A
C831        C838   1.445       .  S
C833        C834   1.402       .  A
C833        H836   1.084       .  S
C834        C837   1.445       .  S
C837        N839   1.157       .  T
C838        N840   1.157       .  T
C841        C842   1.410       .  A
C841        C846   1.421       .  A
C842        C843   1.397       .  A
C842        H847   1.084       .  S
C843        C844   1.405       .  A
C843        C850   1.442       .  S
C844        C845   1.400       .  A
C845        C846   1.404       .  A
C845        H848   1.086       .  S
C846        C849   1.444       .  S
C849        N851   1.157       .  T
C850        N852   1.156       .  T
C853        C854   1.410       .  A
C853        C858   1.416       .  A
C854        C855   1.400       .  A
C854        H859   1.084       .  S
C855        C856   1.408       .  A
C856        C857   1.403       .  A
C857        C858   1.401       .  A
C857        H860   1.085       .  S
C858        C861   1.444       .  S
C861        N863   1.157       .  T
C862        N864   1.157       .  T
C865        C870   1.415       .  A
C866        C867   1.404       .  A
C866        H871   1.084       .  S
C867        C874   1.443       .  S
C868        C869   1.407       .  A
C869        C870   1.398       .  A
C869        H872   1.084       .  S
C870        C873   1.445       .  S
C873        N875   1.157       .  T
C874        N876   1.157       .  T
C877        C878   1.403       .  A
C877        C882   1.407       .  A
C878        C879   1.404       .  A
C878        H883   1.084       .  S
C879        C880   1.413       .  A
C879        C886   1.443       .  S
C880        C881   1.406       .  A
C881        C882   1.398       .  A
C881        H884   1.084       .  S
C882        C885   1.445       .  S
C885        N887   1.157       .  T
C886        N888   1.157       .  T
C889        C890   1.409       .  A
C890        C891   1.397       .  A
C890        H895   1.084       .  S
C891        C898   1.445       .  S
C892        C893   1.404   1_455  A
C893        C894   1.403       .  A
C893        H896   1.084       .  S
C894        C897   1.443       .  S
C897        N899   1.157       .  T
C898        N900   1.157       .  T
C901        C902   1.409       .  A
C901        C906   1.421       .  A
C902        C903   1.402       .  A
C902        H907   1.083       .  S
C903        C904   1.407       .  A
C903        C910   1.445       .  S
C904        C905   1.397       .  A
C905        C906   1.399       .  A
C905        H908   1.085       .  S
C906        C909   1.445       .  S
C909        N911   1.157       .  T
C910        N912   1.157       .  T
C913        C914   1.401       .  A
C914        C915   1.400       .  A
C914        H919   1.085       .  S
C915        C916   1.413       .  A
C915        C922   1.445       .  S
C917        C918   1.401       .  A
C917        H920   1.085   1_545  S
C918        C921   1.444   1_545  S
C921        N923   1.157       .  T
C922        N924   1.157       .  T
C925        C926   1.404       .  A
C925        C930   1.410       .  A
C926        C927   1.405       .  A
C926        H931   1.085       .  S
C927        C928   1.411       .  A
C927        C934   1.443       .  S
C928        C929   1.402       .  A
C929        C930   1.395       .  A
C929        H932   1.086       .  S
C930        C933   1.445       .  S
C933        N935   1.157       .  T
C934        N936   1.157       .  T
C937        C938   1.411       .  A
C937        C942   1.417       .  A
C938        C939   1.402       .  A
C938        H943   1.084       .  S
C939        C940   1.412       .  A
C939        C946   1.444       .  S
C940        C941   1.406       .  A
C941        C942   1.399       .  A
C941        H944   1.085       .  S
C942        C945   1.444       .  S
C946        N948   1.157       .  T
