geometry optimzed in LAMMPS
_audit_creation_date              2020-11-30 
_audit_creation_method            'lammps2cif' 
_symmetry_space_group_name_H-M    'P1' 
_symmetry_Int_Tables_number       1 
_symmetry_cell_setting            triclinic 
loop_ 
_symmetry_equiv_pos_as_xyz 
  x,y,z 
_cell_length_a                    34.41294777 
_cell_length_b                    34.83122352364323 
_cell_length_c                    26.42787824476902 
_cell_angle_alpha                 90.03478680339883 
_cell_angle_beta                  91.81115453469059 
_cell_angle_gamma                 88.46433602038303 
loop_ 
_atom_site_label 
_atom_site_type_symbol 
_atom_site_fract_x 
_atom_site_fract_y 
_atom_site_fract_z 
_atom_site_charge 
O1          O  0.25428894  0.18151628  0.35109016    -0.79800
O2          O  0.25234120  0.17903918  0.64563861    -0.81400
O3          O  0.31652182  0.13642804  0.51031342    -0.78400
O4          O  0.19433070  0.13984638  0.47888855    -0.76800
O5          O  0.14747781  0.18648167  0.48741043    -0.78600
O6          O  0.36144031  0.18341157  0.50849944    -0.79500
O7          O  0.24964807  0.13691055  0.57885891    -0.80900
O8          O  0.26031545  0.14075568  0.41859732    -0.81100
Eu9        Eu  0.25489771  0.17175887  0.50002890     2.39200
O10         O  0.21687826  0.20927540  0.55499357    -0.88600
O11         O  0.29154205  0.20967500  0.44678282    -0.92300
C12         C  0.25886288  0.14724498  0.37070160     1.02400
C13         C  0.25008003  0.14434046  0.62653794     1.02300
C14         C  0.35136886  0.14846894  0.51480723     1.02200
C15         C  0.15909045  0.15270451  0.47377070     1.00100
H16         H  0.31028749  0.19297882  0.57553404     0.29800
O17         O  0.29380940  0.20927389  0.55446253    -1.01000
H18         H  0.19998969  0.19603161  0.42418647     0.29800
O19         O  0.21575477  0.21132296  0.44711545    -1.03600
O20         O  0.25381301  0.31696958  0.64459675    -0.80800
O21         O  0.24919593  0.31500174  0.35234054    -0.80300
O22         O  0.36936426  0.24681600  0.58056848    -0.78800
O23         O  0.14535881  0.24979749  0.58262353    -0.82100
O24         O  0.13749918  0.24552206  0.42503627    -0.80000
O25         O  0.36406872  0.24443487  0.42075994    -0.78600
O26         O  0.31115340  0.35605813  0.51178336    -0.80100
O27         O  0.19214962  0.35755705  0.48679248    -0.82100
O28         O  0.35914010  0.30965255  0.51785479    -0.78800
O29         O  0.14652726  0.31143585  0.48094452    -0.81500
O30         O  0.32765247  0.24625034  0.64666440    -0.77200
O31         O  0.31830089  0.24615145  0.35550646    -0.77300
O32         O  0.17790498  0.24710122  0.35799402    -0.76900
O33         O  0.19058082  0.25096171  0.64843464    -0.80400
O34         O  0.24593638  0.35905401  0.57811197    -0.79800
O35         O  0.25347414  0.35554051  0.41993383    -0.78100
Eu36       Eu  0.25664251  0.24767296  0.61013947     2.39800
Eu37       Eu  0.25058836  0.24808871  0.39079416     2.39600
Eu38       Eu  0.33079476  0.24685105  0.50108012     2.38400
Eu39       Eu  0.17717247  0.24835842  0.50114352     2.39900
Eu40       Eu  0.25219719  0.32241991  0.50029485     2.39800
O41         O  0.21310596  0.28558336  0.44690255    -0.92600
O42         O  0.29256460  0.28475492  0.55416794    -0.91500
C43         C  0.24866861  0.35169863  0.62576163     1.02600
C44         C  0.25081783  0.34927354  0.37216176     1.01300
C45         C  0.36279002  0.24660976  0.62835462     1.00700
C46         C  0.15500103  0.25083609  0.63018306     1.02700
C47         C  0.14300603  0.24609007  0.37735488     1.01600
C48         C  0.35413262  0.24436782  0.37331849     1.00500
C49         C  0.34613664  0.34456872  0.52116450     1.00600
C50         C  0.15771862  0.34631313  0.47716115     1.03200
H51         H  0.30777147  0.30222413  0.42669530     0.30500
O52         O  0.29122813  0.28551908  0.44611751    -1.04700
H53         H  0.19821571  0.30315449  0.57394641     0.32600
O54         O  0.21522912  0.28626375  0.55505208    -1.07300
N55         N  0.99300507  0.45275454  0.50756415    -0.36300
N56         N  0.00850332  0.00430060  0.43012516    -0.56900
N57         N  0.00151132  0.06435298  0.50512507    -0.36300
N58         N  0.49462452  0.99726291  0.60372728    -0.56900
C59         C  0.00886841  0.42868310  0.47343299     0.27300
C60         C  0.48619730  0.42842433  0.55280401     0.27300
C61         C  0.03511120  0.06836649  0.48176422     0.27300
C62         C  0.50995871  0.06623882  0.55559901     0.27300
C63         C  0.01931766  0.47275940  0.40203035     0.35900
C64         C  0.02354034  0.03301337  0.40377270     0.35900
C65         C  0.46747489  0.47328171  0.61851796     0.35900
C66         C  0.48264143  0.03094599  0.62341715     0.35900
C67         C  0.01130867  0.39162360  0.49281488    -0.21600
C68         C  0.49642647  0.39050695  0.54370029    -0.21600
C69         C  0.06515511  0.07315314  0.51757301    -0.21600
C70         C  0.54925624  0.07051107  0.56467776    -0.21600
C71         C  0.03545718  0.48064022  0.35590201    -0.22700
C72         C  0.03638421  0.01963475  0.35767641    -0.22700
C73         C  0.44103669  0.48908305  0.65126902    -0.22700
C74         C  0.45276730  0.02514021  0.65631598    -0.22700
C75         C  0.02844402  0.43975691  0.43018916    -0.18000
C76         C  0.46169668  0.43985638  0.59109967    -0.18000
C77         C  0.48228255  0.06338270  0.59267609    -0.18000
C78         C  0.03903030  0.06465473  0.42899375    -0.18000
H79         H  0.02345045  0.36629942  0.47478173     0.14900
H80         H  0.49276503  0.36622901  0.56849901     0.14900
H81         H  0.09572752  0.07601962  0.51109918     0.14900
H82         H  0.56446565  0.07194204  0.60108102     0.14900
H83         H  0.04997448  0.46041162  0.33124908     0.13200
H84         H  0.05300970  0.03504863  0.33058728     0.13200
H85         H  0.41508675  0.47620499  0.66486595     0.13200
H86         H  0.43464632  0.04727798  0.67285394     0.13200
H87         H  0.98681920  0.48210026  0.50405595     0.26400
H88         H  0.97457855  0.06040996  0.48695688     0.26400
O89         O  0.50583678  0.43128526  0.85647663    -0.79800
O90         O  0.49792611  0.42920205  0.14507809    -0.81400
O91         O  0.05779508  0.38949160  0.02348549    -0.78400
O92         O  0.42965736  0.39849054  0.98666576    -0.76800
O93         O  0.38546940  0.44797690  0.99021538    -0.78600
O94         O  0.10568295  0.43350448  0.02775807    -0.79500
O95         O  0.49261578  0.38862313  0.07749453    -0.80900
O96         O  0.50338484  0.38779237  0.92134388    -0.81100
Eu97       Eu  0.49631970  0.42386858  0.99959475     2.39200
O98         O  0.45804684  0.46298371  0.05191855    -0.88600
O99         O  0.03973609  0.45902167  0.94922230    -0.92300
C100        C  0.50567405  0.39607536  0.87410259     1.02400
C101        C  0.49552733  0.39466086  0.12525073     1.02300
C102        C  0.09260586  0.39962196  0.03524574     1.02200
C103        C  0.39442513  0.41256331  0.98383105     1.00100
H104        H  0.04943963  0.44622910  0.07948470     0.29800
O105        O  0.03479189  0.46162402  0.05579997    -1.01000
H106        H  0.44608773  0.44875258  0.92266498     0.29800
O107        O  0.46186982  0.46491851  0.94443180    -1.03600
O108        O  0.49638174  0.06576753  0.15071502    -0.80800
O109        O  0.50389401  0.07003661  0.85788663    -0.80300
O110        O  0.11021871  0.50202501  0.08533885    -0.78800
O111        O  0.38561537  0.50462186  0.07360385    -0.82100
O112        O  0.38900255  0.99727910  0.91302337    -0.80000
O113        O  0.11313473  0.99753244  0.92601495    -0.78600
O114        O  0.05716890  0.10822938  0.01682864    -0.80100
O115        O  0.43730367  0.11128089  0.98664477    -0.82100
O116        O  0.10393156  0.06039847  0.01955305    -0.78800
O117        O  0.39087188  0.06633747  0.97677409    -0.81500
O118        O  0.06709320  0.50280258  0.14936825    -0.77200
O119        O  0.07018631  0.99754236  0.85788671    -0.77300
O120        O  0.43333340  0.99710586  0.85020634    -0.76900
O121        O  0.42796016  0.49911096  0.14179843    -0.80400
O122        O  0.49459730  0.10894868  0.08526168    -0.79800
O123        O  0.50196629  0.11192618  0.92494612    -0.78100
Eu124      Eu  0.49712900  0.49880020  0.11030741     2.39800
Eu125      Eu  0.50120306  0.00028721  0.89152386     2.39600
Eu126      Eu  0.07651491  0.49696830  0.00550423     2.38400
Eu127      Eu  0.42275980  0.50422648  0.99587478     2.39900
Eu128      Eu  0.49743030  0.07574991  0.00312471     2.39800
O129        O  0.46152822  0.03954390  0.94452858    -0.92600
O130        O  0.03483379  0.03497163  0.05562111    -0.91500
C131        C  0.49524771  0.10081940  0.13296458     1.02600
C132        C  0.50380109  0.10483252  0.87731086     1.01300
C133        C  0.10250102  0.50445315  0.13215380     1.00700
C134        C  0.39277187  0.50141673  0.12161906     1.02700
C135        C  0.39781212  0.99527600  0.86607863     1.01600
C136        C  0.10545064  0.99739576  0.87776083     1.00500
C137        C  0.09212803  0.09569314  0.02321423     1.00600
C138        C  0.40306777  0.10074865  0.97364086     1.03200
H139        H  0.05546908  0.05433837  0.93279352     0.30500
O140        O  0.03812915  0.03817978  0.95042185    -1.04700
H141        H  0.43987199  0.05731229  0.07324340     0.32600
O142        O  0.45709373  0.04042895  0.05476694    -1.07300
N143        N  0.26172942  0.19996317  0.96927496    -0.36300
N144        N  0.25726831  0.25835289  0.88582435    -0.56900
N145        N  0.24377108  0.31209729  0.99645244    -0.36300
N146        N  0.24440314  0.24395704  0.05932001    -0.56900
C147        C  0.27019609  0.18229238  0.92547799     0.27300
C148        C  0.25030795  0.17238050  0.00114072     0.27300
C149        C  0.23596373  0.31775302  0.94682915     0.27300
C150        C  0.20927451  0.30920451  0.01813223     0.27300
C151        C  0.28495407  0.23477965  0.86787119     0.35900
C152        C  0.26821506  0.29414611  0.87473200     0.35900
C153        C  0.23845170  0.20923110  0.07838590     0.35900
C154        C  0.22755762  0.26929614  0.09042085     0.35900
C155        C  0.26547521  0.14302858  0.93027093    -0.21600
C156        C  0.25202378  0.13689301  0.97770001    -0.21600
C157        C  0.19662177  0.31781842  0.93590379    -0.21600
C158        C  0.17938395  0.31383366  0.98162561    -0.21600
C159        C  0.30946107  0.25468435  0.83754839    -0.22700
C160        C  0.29781477  0.29258410  0.84044252    -0.22700
C161        C  0.22482674  0.21319523  0.12717987    -0.22700
C162        C  0.21874218  0.25174971  0.13531360    -0.22700
C163        C  0.29325608  0.19867947  0.88898144    -0.18000
C164        C  0.22967318  0.17904211  0.04521368    -0.18000
C165        C  0.20533028  0.29947130  0.06937434    -0.18000
C166        C  0.26444416  0.32285108  0.91171920    -0.18000
H167        H  0.27133047  0.12107615  0.90242147     0.14900
H168        H  0.24338361  0.10969459  0.99298960     0.14900
H169        H  0.18211142  0.32142787  0.89920707     0.14900
H170        H  0.14853519  0.31176968  0.98558809     0.14900
H171        H  0.33651881  0.24432885  0.82241598     0.13200
H172        H  0.31552160  0.31616200  0.82974894     0.13200
H173        H  0.21575502  0.19120632  0.15250582     0.13200
H174        H  0.20237753  0.26404156  0.16597946     0.13200
H175        H  0.26355060  0.22932700  0.97591732     0.26400
H176        H  0.27123754  0.30981281  0.01442914     0.26400
C177        C  0.99467959  0.24982060  0.24860959    -0.02200
C178        C  0.25358634  0.49708575  0.25687586    -0.02200
C179        C  0.01374548  0.24899562  0.75478076    -0.02200
C180        C  0.24830786  0.49760840  0.74763974    -0.02200
C181        C  0.20707503  0.02155539  0.17973928    -0.12000
C182        C  0.21118697  0.50194469  0.22760476     0.05000
C183        C  0.17337972  0.49217272  0.24660300    -0.07300
C184        C  0.13863467  0.49599367  0.21639724    -0.08000
C185        C  0.13844044  0.50831061  0.16629325    -0.02600
C186        C  0.17378147  0.02217077  0.14748839     0.04300
N187        N  0.17918695  0.03406304  0.09608492     0.66800
H188        H  0.23190769  0.03504535  0.16458408     0.15700
H189        H  0.11149159  0.48727523  0.23206545     0.15400
N190        N  0.16734115  0.47944415  0.29673709     0.74500
O191        O  0.17984039  0.00895182  0.06175035    -0.39000
O192        O  0.19446306  0.56579304  0.09048595    -0.38900
O193        O  0.15440754  0.99975214  0.32826907    -0.39600
O194        O  0.15669028  0.44537665  0.30285029    -0.39700
C195        C  0.28806349  0.49033700  0.16807951    -0.12000
C196        C  0.29091405  0.49622294  0.22110780     0.05000
C197        C  0.33032515  0.49941379  0.24009492    -0.07300
C198        C  0.36218397  0.50170832  0.20762731    -0.08000
C199        C  0.35766631  0.49987585  0.15502203    -0.02600
C200        C  0.31938699  0.49414948  0.13559976     0.04300
N201        N  0.31131325  0.48981378  0.08271553     0.66800
H202        H  0.26156948  0.48064397  0.15022779     0.15700
H203        H  0.39117411  0.50406447  0.22438323     0.15400
N204        N  0.34023972  0.49688098  0.29243933     0.74500
O205        O  0.30320244  0.45693511  0.06629372    -0.39000
O206        O  0.29752517  0.01128547  0.05451194    -0.38900
O207        O  0.34554417  0.46370063  0.31105521    -0.39600
O208        O  0.35459235  0.02974439  0.30974099    -0.39700
C209        C  0.99895585  0.35904985  0.20955369    -0.12000
C210        C  0.49697768  0.35813320  0.15722157     0.05000
C211        C  0.49739838  0.32065202  0.13480123    -0.07300
C212        C  0.49920200  0.28720410  0.16443539    -0.08000
C213        C  0.99692602  0.28779012  0.21657643    -0.02600
C214        C  0.99946595  0.32520711  0.23935985     0.04300
N215        N  0.00313932  0.32984261  0.29297805     0.66800
H216        H  0.00077902  0.38662228  0.22835118     0.15700
H217        H  0.50133025  0.26007929  0.14492422     0.15400
N218        N  0.49284181  0.31507378  0.08154885     0.74500
O219        O  0.03627205  0.33659648  0.31177545    -0.39000
O220        O  0.97373920  0.33965525  0.31770765    -0.38900
O221        O  0.51898310  0.29685246  0.05838649    -0.39600
O222        O  0.45879903  0.31625677  0.06267232    -0.39700
C223        C  0.46707295  0.16565097  0.15373823    -0.12000
C224        C  0.49321869  0.13554741  0.16743959     0.05000
C225        C  0.01774700  0.14155124  0.20988789    -0.07300
C226        C  0.01817566  0.17794414  0.23380508    -0.08000
C227        C  0.99364621  0.20986042  0.21812088    -0.02600
C228        C  0.46587003  0.20120278  0.17948414     0.04300
N229        N  0.43312065  0.22586172  0.16785777     0.66800
H230        H  0.44600268  0.16109023  0.12308432     0.15700
H231        H  0.03740672  0.17998180  0.26669315     0.15400
N232        N  0.04264155  0.11141860  0.23009822     0.74500
O233        O  0.43105439  0.24204273  0.12508655    -0.39000
O234        O  0.40176802  0.21881809  0.18916302    -0.38900
O235        O  0.07860941  0.11697274  0.23578220    -0.39600
O236        O  0.02780396  0.08497218  0.25504802    -0.39700
C237        C  0.17757203  0.35379550  0.10930075    -0.12000
C238        C  0.17221644  0.31600632  0.09574231     0.05000
C239        C  0.13489575  0.30419980  0.08104936    -0.07300
C240        C  0.10813454  0.33207783  0.06226845    -0.08000
C241        C  0.11794155  0.37108963  0.06255377    -0.02600
C242        C  0.15121299  0.38170712  0.09151226     0.04300
N243        N  0.15984840  0.42034693  0.10264282     0.66800
H244        H  0.20558253  0.36244054  0.12466044     0.15700
H245        H  0.08167047  0.32289303  0.04350435     0.15400
N246        N  0.12755294  0.26424722  0.07446023     0.74500
O247        O  0.15516534  0.43117877  0.14753662    -0.39000
O248        O  0.18588652  0.43562470  0.07761075    -0.38900
O249        O  0.13291333  0.24142209  0.11117889    -0.39600
O250        O  0.12005563  0.25100999  0.03095017    -0.39700
C251        C  0.33581057  0.33177917  0.92789109    -0.12000
C252        C  0.29767648  0.34706140  0.92824093     0.05000
C253        C  0.29130325  0.38305671  0.95168649    -0.07300
C254        C  0.32321553  0.40335645  0.97023721    -0.08000
C255        C  0.36154925  0.38803934  0.96868127    -0.02600
C256        C  0.36740848  0.35168173  0.94710193     0.04300
N257        N  0.40523420  0.33432258  0.94391520     0.66800
H258        H  0.34153729  0.30346004  0.91395603     0.15700
H259        H  0.31778070  0.43190872  0.98452928     0.15400
N260        N  0.25279376  0.39832339  0.96003349     0.74500
O261        O  0.41786086  0.31303849  0.97957362    -0.39000
O262        O  0.42124120  0.33239145  0.90167474    -0.38900
O263        O  0.24339092  0.40759363  0.00425357    -0.39600
O264        O  0.22689641  0.39832373  0.92513550    -0.39700
C265        C  0.33940845  0.14775354  0.87236439    -0.12000
C266        C  0.33331117  0.18391281  0.89282503     0.05000
C267        C  0.35533489  0.19470875  0.93621441    -0.07300
C268        C  0.37641289  0.16709778  0.96453925    -0.08000
C269        C  0.37781862  0.12918282  0.94765189    -0.02600
C270        C  0.36076223  0.12027953  0.90007994     0.04300
N271        N  0.36582397  0.08357347  0.87836180     0.66800
H272        H  0.32339170  0.13933661  0.83830706     0.15700
H273        H  0.39260161  0.17545856  0.99845075     0.15400
N274        N  0.35915146  0.23406430  0.94869550     0.74500
O275        O  0.33699570  0.06204306  0.87572950    -0.39000
O276        O  0.39381600  0.07817962  0.84934079    -0.38900
O277        O  0.33826415  0.24958613  0.98178352    -0.39600
O278        O  0.38741873  0.25164235  0.93147728    -0.39700
C279        C  0.13208129  0.14649868  0.99410676    -0.12000
C280        C  0.12092240  0.12408948  0.03413603     0.05000
C281        C  0.14015444  0.12623385  0.08172992    -0.07300
C282        C  0.17591017  0.14431380  0.08487729    -0.08000
C283        C  0.18954101  0.16434498  0.04338104    -0.02600
C284        C  0.16539379  0.16779698  0.99855227     0.04300
N285        N  0.17546158  0.18997313  0.95545233     0.66800
H286        H  0.11576404  0.14610195  0.95829983     0.15700
H287        H  0.19389713  0.14054219  0.11872892     0.15400
N288        N  0.12404340  0.10998873  0.12629602     0.74500
O289        O  0.18275854  0.17263467  0.91473619    -0.39000
O290        O  0.16467490  0.22481632  0.95304272    -0.38900
O291        O  0.14496321  0.10493241  0.16597367    -0.39600
O292        O  0.08769684  0.10709822  0.12901828    -0.39700
C293        C  0.31963621  0.52148217  0.76740238    -0.12000
C294        C  0.28612112  0.99941165  0.78150049     0.05000
C295        C  0.29368391  0.97442158  0.82369695    -0.07300
C296        C  0.33086205  0.97167369  0.84767665    -0.08000
C297        C  0.36294540  0.99163103  0.83030406    -0.02600
C298        C  0.35648383  0.01512082  0.78724649     0.04300
N299        N  0.38817799  0.03261397  0.76266959     0.66800
H300        H  0.31557872  0.54441417  0.74074023     0.15700
H301        H  0.33454256  0.95374825  0.88108432     0.15400
N302        N  0.26405776  0.95134863  0.84332173     0.74500
O303        O  0.42160204  0.51805222  0.75835522    -0.39000
O304        O  0.38285040  0.06385191  0.73888627    -0.38900
O305        O  0.26939164  0.41343257  0.83403311    -0.39600
O306        O  0.24536755  0.96386105  0.88045168    -0.39700
C307        C  0.16874643  0.02565621  0.85118360    -0.12000
C308        C  0.14023125  0.99775399  0.84391158     0.05000
C309        C  0.14915355  0.46828415  0.80880569    -0.07300
C310        C  0.18375156  0.46763114  0.78119910    -0.08000
C311        C  0.21018422  0.99809146  0.78388454    -0.02600
C312        C  0.20309171  0.02610690  0.82270363     0.04300
N313        N  0.23092199  0.05460744  0.83566336     0.66800
H314        H  0.16457753  0.04739615  0.88001330     0.15700
H315        H  0.18760320  0.44321165  0.75671307     0.15400
N316        N  0.12217676  0.43826628  0.80047694     0.74500
O317        O  0.25606839  0.04691275  0.87016515    -0.39000
O318        O  0.22562382  0.58770253  0.82769043    -0.38900
O319        O  0.09963098  0.93679237  0.76324876    -0.39600
O320        O  0.12674929  0.40732587  0.82502281    -0.39700
C321        C  0.48990199  0.20872551  0.82880564    -0.12000
C322        C  0.01797908  0.21246348  0.79141472     0.05000
C323        C  0.04632081  0.18110589  0.78987589    -0.07300
C324        C  0.03905708  0.14523659  0.81311052    -0.08000
C325        C  0.50698877  0.14048403  0.84494924    -0.02600
C326        C  0.48399156  0.17397277  0.85412896     0.04300
N327        N  0.45173768  0.17287539  0.88604504     0.66800
H328        H  0.46970198  0.23252807  0.83521199     0.15700
H329        H  0.06053313  0.12202600  0.81074080     0.15400
N330        N  0.08545305  0.18640052  0.77497662     0.74500
O331        O  0.45595386  0.18474815  0.93094479    -0.39000
O332        O  0.41847255  0.17474538  0.86482871    -0.38900
O333        O  0.10831193  0.20282456  0.80572044    -0.39600
O334        O  0.10003654  0.16320290  0.74372855    -0.39700
C335        C  0.03754021  0.33286916  0.85233687    -0.12000
C336        C  0.50870368  0.36135534  0.83975220     0.05000
C337        C  0.47964100  0.35198765  0.80324259    -0.07300
C338        C  0.48055058  0.31554195  0.77893637    -0.08000
C339        C  0.01065713  0.28727071  0.78888372    -0.02600
C340        C  0.03831660  0.29647180  0.82845018     0.04300
N341        N  0.06827774  0.26977137  0.84500842     0.66800
H342        H  0.05901583  0.33830192  0.88221585     0.15700
H343        H  0.45701247  0.31050384  0.75219987     0.15400
N344        N  0.44734422  0.37796651  0.79259362     0.74500
O345        O  0.10306403  0.27714869  0.83577813    -0.39000
O346        O  0.06191934  0.24832287  0.88215722    -0.38900
O347        O  0.45274882  0.41320900  0.78535998    -0.39600
O348        O  0.41356675  0.36516511  0.78620700    -0.39700
C349        C  0.44276124  0.22219093  0.73112844    -0.12000
C350        C  0.47471756  0.24566273  0.71876951     0.05000
C351        C  0.46786876  0.26853331  0.67406644    -0.07300
C352        C  0.43133382  0.26898722  0.64737512    -0.08000
C353        C  0.39947643  0.24735601  0.66240744    -0.02600
C354        C  0.40612541  0.22325258  0.70470316     0.04300
N355        N  0.37790524  0.19583409  0.71779579     0.66800
H356        H  0.44549042  0.20034263  0.75951255     0.15700
H357        H  0.42807110  0.28656004  0.61362534     0.15400
N358        N  0.49795194  0.29083202  0.65355201     0.74500
O359        O  0.37676969  0.16431947  0.69429629    -0.39000
O360        O  0.36173866  0.19866261  0.75980035    -0.38900
O361        O  0.51235133  0.28093449  0.61204005    -0.39600
O362        O  0.50393200  0.32408083  0.67036141    -0.39700
C363        C  0.07811366  0.28032480  0.72506271    -0.12000
C364        C  0.05054770  0.25058523  0.72008992     0.05000
C365        C  0.05852924  0.22284777  0.68164048    -0.07300
C366        C  0.09360543  0.22274899  0.65587411    -0.08000
C367        C  0.12165540  0.25036545  0.66470348    -0.02600
C368        C  0.11334578  0.27987209  0.69920832     0.04300
N369        N  0.13909378  0.31106574  0.70622751     0.66800
H370        H  0.07280464  0.30527575  0.74804597     0.15700
H371        H  0.09845196  0.20102673  0.62714817     0.15400
N372        N  0.03067180  0.19598294  0.66442003     0.74500
O373        O  0.13337159  0.34125049  0.68037088    -0.39000
O374        O  0.16077121  0.31207051  0.74558732    -0.38900
O375        O  0.03282133  0.16244084  0.68237853    -0.39600
O376        O  0.01684798  0.20049290  0.61993698    -0.39700
C377        C  0.27267189  0.07690757  0.64624533    -0.12000
C378        C  0.24905916  0.10884533  0.65922127     0.05000
C379        C  0.22042345  0.10276315  0.69492909    -0.07300
C380        C  0.21753513  0.06651723  0.71858222    -0.08000
C381        C  0.24450498  0.03543727  0.71103730    -0.02600
C382        C  0.27021725  0.04072028  0.66995230     0.04300
N383        N  0.29518916  0.01027190  0.65221112     0.66800
H384        H  0.29323524  0.07985815  0.61632103     0.15700
H385        H  0.19319959  0.06344191  0.74264116     0.15400
N386        N  0.19214428  0.13222618  0.70523004     0.74500
O387        O  0.28298274  0.98972843  0.61606006    -0.39000
O388        O  0.33148859  0.01257773  0.65938990    -0.38900
O389        O  0.15935725  0.13175150  0.68253509    -0.39600
O390        O  0.19662134  0.15298482  0.74401593    -0.39700
C391        C  0.22008275  0.41749328  0.64716998    -0.12000
C392        C  0.24663061  0.38691682  0.65918362     0.05000
C393        C  0.27519758  0.39377575  0.69670447    -0.07300
C394        C  0.27690150  0.42950313  0.72145284    -0.08000
C395        C  0.24859398  0.45969163  0.71347473    -0.02600
C396        C  0.22045776  0.45310491  0.67346958     0.04300
N397        N  0.19372659  0.48301227  0.65639247     0.66800
H398        H  0.19889072  0.41389482  0.61643833     0.15700
H399        H  0.30176294  0.43264527  0.74652499     0.15400
N400        N  0.30436308  0.36517443  0.70866083     0.74500
O401        O  0.19726217  0.49757289  0.61312175    -0.39000
O402        O  0.16347995  0.49076923  0.68053724    -0.38900
O403        O  0.33447882  0.36270487  0.68289528    -0.39600
O404        O  0.30334635  0.34740212  0.74999845    -0.39700
C405        C  0.41786478  0.06326075  0.54766380    -0.12000
C406        C  0.44414113  0.08164510  0.58081491     0.05000
C407        C  0.43540813  0.11848301  0.59872761    -0.07300
C408        C  0.40489984  0.13928437  0.57539731    -0.08000
C409        C  0.38158101  0.12303130  0.53706636    -0.02600
C410        C  0.38632461  0.08378539  0.52564097     0.04300
N411        N  0.36121374  0.06503126  0.49004481     0.66800
H412        H  0.42345909  0.03374656  0.53635898     0.15700
H413        H  0.39866578  0.16835632  0.58799341     0.15400
N414        N  0.45622750  0.13470155  0.64107972     0.74500
O415        O  0.36975892  0.06449626  0.44397464    -0.39000
O416        O  0.33767887  0.04097393  0.50593760    -0.38900
O417        O  0.45362752  0.17032857  0.64854762    -0.39600
O418        O  0.46996688  0.11344855  0.67631663    -0.39700
C419        C  0.09440446  0.14769548  0.43158917    -0.12000
C420        C  0.13026692  0.12967015  0.44561088     0.05000
C421        C  0.13773548  0.09178336  0.42821288    -0.07300
C422        C  0.10703589  0.07079710  0.40780118    -0.08000
C423        C  0.06946582  0.08702154  0.40645810    -0.02600
C424        C  0.06448945  0.12673355  0.40999782     0.04300
N425        N  0.02695302  0.14427511  0.40093992     0.66800
H426        H  0.08890880  0.17773042  0.43908060     0.15700
H427        H  0.11148879  0.04040857  0.40082688     0.15400
N428        N  0.17506493  0.07326036  0.43343826     0.74500
O429        O  0.00627855  0.15317772  0.43796047    -0.39000
O430        O  0.01135395  0.14240814  0.35721231    -0.38900
O431        O  0.18249600  0.05201968  0.47136334    -0.39600
O432        O  0.19443945  0.06833543  0.39419260    -0.39700
C433        C  0.07936318  0.39572716  0.39794424    -0.12000
C434        C  0.06887724  0.42527701  0.43044691     0.05000
C435        C  0.09355723  0.43432055  0.47220771    -0.07300
C436        C  0.12248616  0.40799982  0.48810014    -0.08000
C437        C  0.12964671  0.37533725  0.45885598    -0.02600
C438        C  0.11156261  0.37215456  0.41052199     0.04300
N439        N  0.12801861  0.34827530  0.37249349     0.63000
H440        H  0.06248530  0.39108883  0.36343015     0.15700
H441        H  0.13927335  0.41301514  0.52276546     0.15400
N442        N  0.08886902  0.46994115  0.49839059     0.74500
O443        O  0.10657222  0.32530666  0.34891247    -0.39000
O444        O  0.15853733  0.35882810  0.35194379    -0.38900
O445        O  0.07428605  0.47115355  0.54157264    -0.39600
O446        O  0.10213682  0.49995879  0.47959963    -0.39700
C447        C  0.40217778  0.43435931  0.53921657    -0.12000
C448        C  0.42257218  0.42517980  0.58456924     0.05000
C449        C  0.41198442  0.39391786  0.61330921    -0.07300
C450        C  0.38752682  0.36698991  0.59129494    -0.08000
C451        C  0.37177455  0.37309717  0.54221874    -0.02600
C452        C  0.37644023  0.40847873  0.51791807     0.04300
N453        N  0.35770741  0.41720324  0.47012453     0.66800
H454        H  0.40936561  0.45965074  0.51790277     0.15700
H455        H  0.38055725  0.34155326  0.61235638     0.15400
N456        N  0.42342898  0.39149778  0.66556806     0.74500
O457        O  0.32625135  0.43668930  0.46901038    -0.39000
O458        O  0.37685468  0.41400688  0.43033748    -0.38900
O459        O  0.40030190  0.40534296  0.69730527    -0.39600
O460        O  0.45903319  0.38815434  0.67793415    -0.39700
C461        C  0.03342195  0.25228451  0.33588387    -0.12000
C462        C  0.03369449  0.24974423  0.28275557     0.05000
C463        C  0.07147570  0.24713354  0.26122370    -0.07300
C464        C  0.10602372  0.24454877  0.29191023    -0.08000
C465        C  0.10535484  0.24623893  0.34488499    -0.02600
C466        C  0.06770598  0.25097521  0.36653050     0.04300
N467        N  0.06309482  0.25832004  0.41939908     0.66800
H468        H  0.00647160  0.25773816  0.35474774     0.15700
H469        H  0.13375843  0.24211820  0.27372832     0.15400
N470        N  0.07565198  0.24715472  0.20767263     0.74500
O471        O  0.06546275  0.29239197  0.43520909    -0.39000
O472        O  0.04525468  0.23455598  0.44548791    -0.38900
O473        O  0.08359886  0.27821030  0.18623273    -0.39600
O474        O  0.08302908  0.21581572  0.18554619    -0.39700
C475        C  0.38904135  0.27172638  0.30055903    -0.12000
C476        C  0.38713904  0.24350952  0.33778325     0.05000
C477        C  0.41897617  0.21742804  0.34406278    -0.07300
C478        C  0.45184064  0.22054819  0.31429206    -0.08000
C479        C  0.45613494  0.25061617  0.27911119    -0.02600
C480        C  0.42224586  0.27589846  0.27115505     0.04300
N481        N  0.41882438  0.30517783  0.23291082     0.66800
H482        H  0.36454683  0.29165247  0.29483624     0.15700
H483        H  0.47518209  0.19948196  0.31993195     0.15400
N484        N  0.41842559  0.18711670  0.38044225     0.74500
O485        O  0.41682946  0.33975364  0.24707649    -0.39000
O486        O  0.40239520  0.29716716  0.19107687    -0.38900
O487        O  0.41293514  0.15321346  0.36551963    -0.39600
O488        O  0.43237359  0.19260238  0.42449685    -0.39700
C489        C  0.26219289  0.38568351  0.29041053    -0.12000
C490        C  0.24954466  0.38521234  0.34032061     0.05000
C491        C  0.23625024  0.42065383  0.36072663    -0.07300
C492        C  0.23852003  0.45464350  0.33314879    -0.08000
C493        C  0.25396574  0.45694520  0.28513859    -0.02600
C494        C  0.26325464  0.42042098  0.26234955     0.04300
N495        N  0.27076108  0.41698943  0.20979568     0.66800
H496        H  0.27068544  0.35887404  0.27254314     0.15700
H497        H  0.22485465  0.47971853  0.34874072     0.15400
N498        N  0.21737664  0.42292402  0.40819105     0.74500
O499        O  0.30397470  0.40556068  0.19629572    -0.39000
O500        O  0.24237397  0.41588003  0.17847708    -0.38900
O501        O  0.23755218  0.42855781  0.44807511    -0.39600
O502        O  0.18147383  0.43118202  0.40814306    -0.39700
C503        C  0.27428836  0.07708849  0.36438199    -0.12000
C504        C  0.26231278  0.11110357  0.33922250     0.05000
C505        C  0.25205860  0.10788101  0.28775400    -0.07300
C506        C  0.25177274  0.07145902  0.26436071    -0.08000
C507        C  0.25777197  0.03575490  0.29058910    -0.02600
C508        C  0.27118262  0.04021840  0.34319990     0.04300
N509        N  0.28163921  0.00998948  0.37869334     0.66800
H510        H  0.28476189  0.07851781  0.40344767     0.15700
H511        H  0.24629221  0.07217080  0.22437295     0.15400
N512        N  0.24166483  0.14102495  0.25803931     0.74500
O513        O  0.31716307  0.00226533  0.38753547    -0.39000
O514        O  0.25961889  0.00605002  0.41560031    -0.38900
O515        O  0.26671025  0.15513880  0.23012602    -0.39600
O516        O  0.20614852  0.14934312  0.24949771    -0.39700
O517        O  0.25309385  0.68161047  0.35100925    -0.79800
O518        O  0.25041255  0.67805469  0.64499928    -0.81400
O519        O  0.31406708  0.63678700  0.50704208    -0.78400
O520        O  0.19224802  0.63953664  0.47567408    -0.76800
O521        O  0.14518066  0.68588883  0.48438370    -0.78600
O522        O  0.35878389  0.68395860  0.50434541    -0.79500
O523        O  0.24795600  0.63615244  0.57793901    -0.80900
O524        O  0.25873914  0.64058093  0.41828242    -0.81100
Eu525      Eu  0.25229700  0.67166572  0.49923536     2.39200
O526        O  0.21415936  0.70842692  0.55490423    -0.88600
O527        O  0.28883865  0.71019302  0.44662539    -0.92300
C528        C  0.25781811  0.64721465  0.37047496     1.02400
C529        C  0.24853875  0.64336848  0.62571278     1.02300
C530        C  0.34887613  0.64895022  0.51028219     1.02200
C531        C  0.15709234  0.65246614  0.46971391     1.00100
H532        H  0.30793732  0.69265309  0.57441722     0.29800
O533        O  0.29121289  0.70910790  0.55390534    -1.01000
H534        H  0.19776595  0.69636195  0.42243205     0.29800
O535        O  0.21344342  0.71141442  0.44619661    -1.03600
O536        O  0.25155060  0.81660438  0.64548299    -0.80800
O537        O  0.24730443  0.81618980  0.35362988    -0.80300
O538        O  0.36595971  0.74633216  0.58085278    -0.78800
O539        O  0.14258059  0.74795513  0.58212129    -0.82100
O540        O  0.13537374  0.74722214  0.42406497    -0.80000
O541        O  0.36154529  0.74556548  0.42073710    -0.78600
O542        O  0.30830696  0.85608060  0.51268171    -0.80100
O543        O  0.18881196  0.85678751  0.48918494    -0.82100
O544        O  0.35662083  0.80995281  0.51728251    -0.78800
O545        O  0.14352122  0.81031522  0.48293978    -0.81500
O546        O  0.32441111  0.74542551  0.64709614    -0.77200
O547        O  0.31596103  0.74708259  0.35532633    -0.77300
O548        O  0.17590018  0.74892029  0.35713968    -0.76900
O549        O  0.18763227  0.74985741  0.64807447    -0.80400
O550        O  0.24391118  0.85889171  0.57924371    -0.79800
O551        O  0.25040668  0.85660949  0.42152888    -0.78100
Eu552      Eu  0.25381943  0.74706305  0.61017881     2.39800
Eu553      Eu  0.24833268  0.74868343  0.39056203     2.39600
Eu554      Eu  0.32797188  0.74728885  0.50088115     2.38400
Eu555      Eu  0.17468037  0.74755044  0.50089376     2.39900
Eu556      Eu  0.24935933  0.82241091  0.50123484     2.39800
O557        O  0.21079822  0.78533053  0.44752998    -0.92600
O558        O  0.28979468  0.78459892  0.55473806    -0.91500
C559        C  0.24673892  0.85151394  0.62686877     1.02600
C560        C  0.24840364  0.85044600  0.37366826     1.01300
C561        C  0.35944410  0.74587159  0.62865336     1.00700
C562        C  0.15211302  0.74924597  0.62969488     1.02700
C563        C  0.14095725  0.74838537  0.37638587     1.01600
C564        C  0.35174554  0.74540926  0.37325034     1.00500
C565        C  0.34345639  0.84477538  0.52113532     1.00600
C566        C  0.15449965  0.84522756  0.47949949     1.03200
H567        H  0.30501536  0.80310695  0.42719853     0.30500
O568        O  0.28847532  0.78619139  0.44636271    -1.04700
H569        H  0.19535274  0.80237045  0.57433158     0.32600
O570        O  0.21236791  0.78564999  0.55528449    -1.07300
N571        N  0.99112187  0.94974461  0.50998928    -0.36300
N572        N  0.00848996  0.50543959  0.42482135    -0.56900
N573        N  0.99979353  0.56823444  0.49772229    -0.36300
N574        N  0.49351394  0.49908550  0.60505021    -0.56900
C575        C  0.00636330  0.92610819  0.47486060     0.27300
C576        C  0.48411303  0.92836604  0.54811079     0.27300
C577        C  0.03355033  0.57073136  0.47435364     0.27300
C578        C  0.50710245  0.56715200  0.55319665     0.27300
C579        C  0.01705794  0.97188233  0.40517988     0.35900
C580        C  0.02257072  0.53401708  0.39734082     0.35900
C581        C  0.46757729  0.97216178  0.61605491     0.35900
C582        C  0.47961776  0.53292405  0.62207207     0.35900
C583        C  0.00887794  0.88878711  0.49340733    -0.21600
C584        C  0.49317584  0.89041379  0.53753484    -0.21600
C585        C  0.06376505  0.57485211  0.51006721    -0.21600
C586        C  0.54595212  0.57371212  0.56267870    -0.21600
C587        C  0.03314884  0.98044635  0.35922243    -0.22700
C588        C  0.03634362  0.51991522  0.35203030    -0.22700
C589        C  0.44240453  0.98775908  0.65054581    -0.22700
C590        C  0.44932379  0.52712090  0.65434517    -0.22700
C591        C  0.02532382  0.93770013  0.43126086    -0.18000
C592        C  0.46039075  0.93970013  0.58721218    -0.18000
C593        C  0.47910697  0.56450380  0.58985699    -0.18000
C594        C  0.03740767  0.56633569  0.42167140    -0.18000
H595        H  0.02049636  0.86362351  0.47448383     0.14900
H596        H  0.48900212  0.86576721  0.56151508     0.14900
H597        H  0.09445361  0.57646707  0.50364418     0.14900
H598        H  0.56063375  0.57685958  0.59921228     0.14900
H599        H  0.04638617  0.96030141  0.33327293     0.13200
H600        H  0.05229497  0.53534479  0.32422099     0.13200
H601        H  0.41610994  0.97545005  0.66399505     0.13200
H602        H  0.42974474  0.54896476  0.66875820     0.13200
H603        H  0.98478076  0.97910517  0.50721561     0.26400
H604        H  0.97283619  0.56494966  0.47937527     0.26400
O605        O  0.50371849  0.93134513  0.85552204    -0.79800
O606        O  0.49629532  0.92944206  0.14485000    -0.81400
O607        O  0.05748085  0.88999932  0.02232752    -0.78400
O608        O  0.43035772  0.89723946  0.98564569    -0.76800
O609        O  0.38587715  0.94652578  0.98850293    -0.78600
O610        O  0.10507866  0.93427143  0.02592876    -0.79500
O611        O  0.49181668  0.88897318  0.07705259    -0.80900
O612        O  0.50284468  0.88784639  0.92054845    -0.81100
Eu613      Eu  0.49601856  0.92397459  0.99904388     2.39200
O614        O  0.45745098  0.96310226  0.05124694    -0.88600
O615        O  0.03866756  0.95930764  0.94790340    -0.92300
C616        C  0.50417531  0.89608153  0.87315490     1.02400
C617        C  0.49405665  0.89492591  0.12485952     1.02300
C618        C  0.09233550  0.90031694  0.03364951     1.02200
C619        C  0.39514323  0.91112414  0.98226687     1.00100
H620        H  0.04885272  0.94659832  0.07869789     0.29800
O621        O  0.03398707  0.96199472  0.05513628    -1.01000
H622        H  0.44507770  0.94871147  0.92247622     0.29800
O623        O  0.46081490  0.96490573  0.94432942    -1.03600
O624        O  0.49555865  0.56544435  0.14992064    -0.80800
O625        O  0.50459354  0.56968661  0.85785076    -0.80300
O626        O  0.10884358  0.00385873  0.08427094    -0.78800
O627        O  0.38360959  0.00355290  0.07250872    -0.82100
O628        O  0.39083330  0.49753352  0.91253009    -0.80000
O629        O  0.11471150  0.49698670  0.92727679    -0.78600
O630        O  0.05797201  0.60785132  0.02063282    -0.80100
O631        O  0.43931313  0.61116386  0.98723490    -0.82100
O632        O  0.10479874  0.56010749  0.02272394    -0.78800
O633        O  0.39247494  0.56649468  0.97842296    -0.81500
O634        O  0.06603063  0.00397752  0.14851285    -0.77200
O635        O  0.07185135  0.49746265  0.85906360    -0.77300
O636        O  0.43545381  0.49680056  0.85002128    -0.76900
O637        O  0.42617055  0.99888167  0.14063818    -0.80400
O638        O  0.49558740  0.60874363  0.08472231    -0.79800
O639        O  0.50338911  0.61173725  0.92474679    -0.78100
Eu640      Eu  0.49581880  0.99914828  0.11023660     2.39800
Eu641      Eu  0.50299920  0.50014150  0.89207422     2.39600
Eu642      Eu  0.07525403  0.99740533  0.00430617     2.38400
Eu643      Eu  0.42142485  0.00405248  0.99561407     2.39900
Eu644      Eu  0.49944532  0.57554511  0.00321194     2.39800
O645        O  0.46329327  0.53940716  0.94492787    -0.92600
O646        O  0.03588904  0.53435552  0.05674897    -0.91500
C647        C  0.49516388  0.60048804  0.13226029     1.02600
C648        C  0.50446210  0.60453453  0.87704458     1.01300
C649        C  0.10133727  0.00611562  0.13116309     1.00700
C650        C  0.39091046  0.00049817  0.12047819     1.02700
C651        C  0.39983936  0.49530558  0.86560060     1.01600
C652        C  0.10713421  0.49700118  0.87896648     1.00500
C653        C  0.09293875  0.59535668  0.02726464     1.00600
C654        C  0.40489722  0.60075358  0.97497186     1.03200
H655        H  0.05697300  0.55444312  0.93396293     0.30500
O656        O  0.03976271  0.53813641  0.95144231    -1.04700
H657        H  0.44166593  0.55721882  0.07303325     0.32600
O658        O  0.45891612  0.54025888  0.05459325    -1.07300
N659        N  0.26223628  0.69898426  0.97365286    -0.36300
N660        N  0.25689751  0.75592714  0.88873173    -0.56900
N661        N  0.24437450  0.81146364  0.99748586    -0.36300
N662        N  0.24453276  0.74458481  0.06223241    -0.56900
C663        C  0.27126572  0.68029669  0.93080367     0.27300
C664        C  0.25201814  0.67195685  0.00709892     0.27300
C665        C  0.23661449  0.81665049  0.94776206     0.27300
C666        C  0.20979161  0.80938726  0.01921718     0.27300
C667        C  0.28384661  0.73183512  0.87023879     0.35900
C668        C  0.26798774  0.79138789  0.87618040     0.35900
C669        C  0.23881382  0.71019531  0.08244320     0.35900
C670        C  0.22765361  0.77043582  0.09257004     0.35900
C671        C  0.26811477  0.64100066  0.93780103    -0.21600
C672        C  0.25502605  0.63584136  0.98561922    -0.21600
C673        C  0.19726358  0.81728074  0.93688231    -0.21600
C674        C  0.17997619  0.81414956  0.98264671    -0.21600
C675        C  0.30763452  0.75097704  0.83810779    -0.22700
C676        C  0.29664616  0.78901061  0.84067053    -0.22700
C677        C  0.22523528  0.71499346  0.13112418    -0.22700
C678        C  0.21890655  0.75367652  0.13800753    -0.22700
C679        C  0.29305625  0.69644093  0.89273801    -0.18000
C680        C  0.23054753  0.67928814  0.05022776    -0.18000
C681        C  0.20556379  0.80033724  0.07063166    -0.18000
C682        C  0.26507751  0.82071276  0.91235244    -0.18000
H683        H  0.27446560  0.61839704  0.91102519     0.14900
H684        H  0.24724584  0.60885131  0.00234782     0.14900
H685        H  0.18279490  0.82071277  0.90013328     0.14900
H686        H  0.14908269  0.81274066  0.98661683     0.14900
H687        H  0.33412918  0.74009779  0.82199502     0.13200
H688        H  0.31441063  0.81211934  0.82857264     0.13200
H689        H  0.21672708  0.69342575  0.15740112     0.13200
H690        H  0.20263694  0.76650827  0.16839383     0.13200
H691        H  0.26261184  0.72861596  0.97863302     0.26400
H692        H  0.27182906  0.80895216  0.01545310     0.26400
C693        C  0.99272225  0.75019203  0.24726086    -0.02200
C694        C  0.25216388  0.99755235  0.25672718    -0.02200
C695        C  0.01063271  0.74810369  0.75370561    -0.02200
C696        C  0.24684998  0.99858059  0.74750678    -0.02200
C697        C  0.20803977  0.52052440  0.17996530    -0.12000
C698        C  0.20988141  0.00258956  0.22716400     0.05000
C699        C  0.17200505  0.99233566  0.24541508    -0.07300
C700        C  0.13735601  0.99704107  0.21521741    -0.08000
C701        C  0.13731094  0.01003355  0.16539743    -0.02600
C702        C  0.17463586  0.52070710  0.14807558     0.04300
N703        N  0.17924883  0.53376978  0.09706346     0.66800
H704        H  0.23241903  0.53463413  0.16459578     0.15700
H705        H  0.11018671  0.98792852  0.23041397     0.15400
N706        N  0.16592943  0.97705061  0.29428305     0.74500
O707        O  0.18243395  0.50926332  0.06222382    -0.39000
O708        O  0.19738952  0.06433844  0.08855497    -0.38900
O709        O  0.15831079  0.50426750  0.32944603    -0.39600
O710        O  0.15766031  0.94203368  0.29748464    -0.39700
C711        C  0.28636889  0.98909689  0.16786921    -0.12000
C712        C  0.28938739  0.99631452  0.22067335     0.05000
C713        C  0.32882204  0.00058529  0.23906236    -0.07300
C714        C  0.36047413  0.00236337  0.20630105    -0.08000
C715        C  0.35590501  0.99868320  0.15396265    -0.02600
C716        C  0.31773160  0.99160479  0.13507134     0.04300
N717        N  0.30995621  0.98412761  0.08274254     0.66800
H718        H  0.25963401  0.97946753  0.15056461     0.15700
H719        H  0.38941074  0.00593576  0.22272807     0.15400
N720        N  0.33912367  0.00013481  0.29131458     0.74500
O721        O  0.30375284  0.95002301  0.06948229    -0.39000
O722        O  0.30058133  0.51896935  0.05702623    -0.38900
O723        O  0.34809407  0.96790549  0.31086880    -0.39600
O724        O  0.35825925  0.52445866  0.31241262    -0.39700
C725        C  0.99600856  0.85965112  0.20908266    -0.12000
C726        C  0.49482138  0.85828155  0.15664647     0.05000
C727        C  0.49556952  0.82085916  0.13398670    -0.07300
C728        C  0.49716129  0.78731567  0.16347889    -0.08000
C729        C  0.99480523  0.78828933  0.21553528    -0.02600
C730        C  0.99562240  0.82571463  0.23866717     0.04300
N731        N  0.99561842  0.83025708  0.29244490     0.66800
H732        H  0.99644912  0.88722139  0.22805629     0.15700
H733        H  0.50020216  0.76025878  0.14399799     0.15400
N734        N  0.49157616  0.81544531  0.08059124     0.74500
O735        O  0.02753601  0.83580232  0.31534863    -0.39000
O736        O  0.96482557  0.84109610  0.31350256    -0.38900
O737        O  0.51763269  0.79672152  0.05789986    -0.39600
O738        O  0.45782461  0.81767529  0.06078921    -0.39700
C739        C  0.46727546  0.66523816  0.15154070    -0.12000
C740        C  0.49294711  0.63510906  0.16665198     0.05000
C741        C  0.01731980  0.64114091  0.21107638    -0.07300
C742        C  0.01661404  0.67796884  0.23468581    -0.08000
C743        C  0.99260125  0.70989446  0.21726732    -0.02600
C744        C  0.46504201  0.70069502  0.17714461     0.04300
N745        N  0.43233398  0.72497877  0.16399810     0.66800
H746        H  0.44719916  0.66071428  0.11975325     0.15700
H747        H  0.03526705  0.68096239  0.26794064     0.15400
N748        N  0.04320631  0.61141479  0.23180157     0.74500
O749        O  0.43171254  0.74191274  0.12173715    -0.39000
O750        O  0.40024032  0.71654268  0.18239906    -0.38900
O751        O  0.05791003  0.58583886  0.20393328    -0.39600
O752        O  0.05370759  0.61214294  0.27797460    -0.39700
C753        C  0.17789727  0.85553457  0.10817064    -0.12000
C754        C  0.17238702  0.81746470  0.09631857     0.05000
C755        C  0.13505590  0.80548019  0.08187082    -0.07300
C756        C  0.10819575  0.83313138  0.06255843    -0.08000
C757        C  0.11815049  0.87209897  0.06102390    -0.02600
C758        C  0.15201071  0.88315813  0.08848438     0.04300
N759        N  0.16221199  0.92195712  0.09517516     0.66800
H760        H  0.20608213  0.86434633  0.12271688     0.15700
H761        H  0.08156178  0.82368904  0.04453141     0.15400
N762        N  0.12788687  0.76543871  0.07567849     0.74500
O763        O  0.15792859  0.93599045  0.13855562    -0.39000
O764        O  0.18873697  0.93450831  0.06839343    -0.38900
O765        O  0.13353401  0.74283323  0.11258653    -0.39600
O766        O  0.12138668  0.75183387  0.03210875    -0.39700
C767        C  0.33692892  0.83038365  0.92514694    -0.12000
C768        C  0.29859565  0.84508788  0.92742859     0.05000
C769        C  0.29239012  0.88103773  0.95105465    -0.07300
C770        C  0.32425784  0.90122734  0.96966571    -0.08000
C771        C  0.36261417  0.88635046  0.96687368    -0.02600
C772        C  0.36865757  0.85057488  0.94359428     0.04300
N773        N  0.40677204  0.83467491  0.93653025     0.66800
H774        H  0.34288559  0.80238209  0.91022299     0.15700
H775        H  0.31872811  0.92949476  0.98494369     0.15400
N776        N  0.25401197  0.89647109  0.95950325     0.74500
O777        O  0.42320960  0.81520971  0.97158812    -0.39000
O778        O  0.41961419  0.83220052  0.89245785    -0.38900
O779        O  0.24471768  0.90561096  0.00377737    -0.39600
O780        O  0.22819400  0.89709820  0.92450614    -0.39700
C781        C  0.33977649  0.64659901  0.87476384    -0.12000
C782        C  0.33333420  0.68259288  0.89539640     0.05000
C783        C  0.35591208  0.69402894  0.93801508    -0.07300
C784        C  0.37771683  0.66683117  0.96605587    -0.08000
C785        C  0.37953455  0.62896392  0.94914031    -0.02600
C786        C  0.36224936  0.61968971  0.90183701     0.04300
N787        N  0.36826726  0.58324689  0.87972180     0.66800
H788        H  0.32341760  0.63785223  0.84113307     0.15700
H789        H  0.39410839  0.67546116  0.99967940     0.15400
N790        N  0.35941102  0.73354383  0.94998379     0.74500
O791        O  0.33958322  0.56170433  0.87469619    -0.39000
O792        O  0.39748863  0.57816862  0.85267168    -0.38900
O793        O  0.33732133  0.74956509  0.98131685    -0.39600
O794        O  0.38817397  0.75098217  0.93389349    -0.39700
C795        C  0.13478591  0.64394039  0.99611489    -0.12000
C796        C  0.12191342  0.62384620  0.03723019     0.05000
C797        C  0.13953495  0.62858356  0.08526995    -0.07300
C798        C  0.17519284  0.64647713  0.08935202    -0.08000
C799        C  0.19037484  0.66456307  0.04731468    -0.02600
C800        C  0.16761143  0.66595338  0.00106533     0.04300
N801        N  0.17792191  0.68779041  0.95782652     0.66800
H802        H  0.11965296  0.64193536  0.95959642     0.15700
H803        H  0.19130615  0.64443327  0.12488424     0.15400
N804        N  0.12028808  0.61811666  0.13006293     0.74500
O805        O  0.18549107  0.67014846  0.91742102    -0.39000
O806        O  0.16678404  0.72252082  0.95482707    -0.38900
O807        O  0.13851576  0.59887448  0.16402786    -0.39600
O808        O  0.09083679  0.63803139  0.14198302    -0.39700
C809        C  0.31810014  0.02195313  0.76807583    -0.12000
C810        C  0.28801913  0.49843147  0.78090763     0.05000
C811        C  0.29626473  0.47299570  0.82247924    -0.07300
C812        C  0.33357124  0.47055374  0.84616674    -0.08000
C813        C  0.36515688  0.49153521  0.82943509    -0.02600
C814        C  0.35815702  0.51560588  0.78690734     0.04300
N815        N  0.38925900  0.53519085  0.76371296     0.66800
H816        H  0.31453788  0.04504744  0.74161654     0.15700
H817        H  0.33769601  0.45218982  0.87910306     0.15400
N818        N  0.26714869  0.44916184  0.84182331     0.74500
O819        O  0.41930195  0.01346904  0.75666712    -0.39000
O820        O  0.38271604  0.56675533  0.74110691    -0.38900
O821        O  0.26472592  0.91577345  0.83424882    -0.39600
O822        O  0.24753517  0.46159824  0.87814449    -0.39700
C823        C  0.17118276  0.52433166  0.85282365    -0.12000
C824        C  0.14205323  0.49705522  0.84509839     0.05000
C825        C  0.14796048  0.96859043  0.80844689    -0.07300
C826        C  0.18240850  0.96839061  0.78064076    -0.08000
C827        C  0.21195894  0.49693587  0.78465132    -0.02600
C828        C  0.20537885  0.52467412  0.82393510     0.04300
N829        N  0.23362110  0.55277998  0.83687568     0.66800
H830        H  0.16750222  0.54581286  0.88209304     0.15700
H831        H  0.18669158  0.94380491  0.75655362     0.15400
N832        N  0.12213262  0.93741132  0.80185798     0.74500
O833        O  0.25877564  0.54476258  0.87125067    -0.39000
O834        O  0.22227695  0.08944457  0.82676656    -0.38900
O835        O  0.10077855  0.43883021  0.76080050    -0.39600
O836        O  0.12877611  0.90683366  0.82660036    -0.39700
C837        C  0.48841103  0.70803353  0.82764404    -0.12000
C838        C  0.01486470  0.71164659  0.79053755     0.05000
C839        C  0.04362361  0.68054466  0.78972842    -0.07300
C840        C  0.03687810  0.64495487  0.81378592    -0.08000
C841        C  0.50659062  0.64006210  0.84415545    -0.02600
C842        C  0.48326381  0.67330156  0.85338716     0.04300
N843        N  0.45124861  0.67191191  0.88560982     0.66800
H844        H  0.46811513  0.73167677  0.83449087     0.15700
H845        H  0.05864513  0.62196916  0.81186461     0.15400
N846        N  0.08255137  0.68565491  0.77391691     0.74500
O847        O  0.45581605  0.68344324  0.93060717    -0.39000
O848        O  0.41789199  0.67428287  0.86469324    -0.38900
O849        O  0.10567053  0.70259795  0.80377022    -0.39600
O850        O  0.09687698  0.66181804  0.74325210    -0.39700
C851        C  0.03472204  0.83213316  0.85126388    -0.12000
C852        C  0.50674081  0.86123559  0.83867472     0.05000
C853        C  0.47710659  0.85165858  0.80296995    -0.07300
C854        C  0.47771232  0.81512438  0.77879231    -0.08000
C855        C  0.00767152  0.78658983  0.78764252    -0.02600
C856        C  0.03519273  0.79564493  0.82748466     0.04300
N857        N  0.06482980  0.76871973  0.84437563     0.66800
H858        H  0.05625030  0.83742181  0.88112569     0.15700
H859        H  0.45374913  0.80993761  0.75275968     0.15400
N860        N  0.44459284  0.87752809  0.79297097     0.74500
O861        O  0.09976067  0.77594878  0.83578820    -0.39000
O862        O  0.05798119  0.74722350  0.88129865    -0.38900
O863        O  0.44980696  0.91275130  0.78535553    -0.39600
O864        O  0.41079222  0.86462839  0.78729672    -0.39700
C865        C  0.43983401  0.72175189  0.73087650    -0.12000
C866        C  0.47150221  0.74549786  0.71815870     0.05000
C867        C  0.46417060  0.76850154  0.67368793    -0.07300
C868        C  0.42755517  0.76870987  0.64741349    -0.08000
C869        C  0.39609148  0.74666839  0.66254512    -0.02600
C870        C  0.40306652  0.72249873  0.70473627     0.04300
N871        N  0.37521292  0.69464747  0.71778984     0.66800
H872        H  0.44296394  0.69991725  0.75924721     0.15700
H873        H  0.42392854  0.78639982  0.61380823     0.15400
N874        N  0.49388063  0.79107406  0.65279143     0.74500
O875        O  0.37083020  0.66551498  0.68998809    -0.39000
O876        O  0.36266191  0.69413465  0.76206858    -0.38900
O877        O  0.50680820  0.78232876  0.61001170    -0.39600
O878        O  0.50090844  0.82365971  0.67108469    -0.39700
C879        C  0.07514293  0.77896928  0.72416458    -0.12000
C880        C  0.04752233  0.74931074  0.71920427     0.05000
C881        C  0.05555588  0.72136663  0.68094386    -0.07300
C882        C  0.09073143  0.72112735  0.65537572    -0.08000
C883        C  0.11873835  0.74877390  0.66411598    -0.02600
C884        C  0.11035881  0.77841481  0.69836031     0.04300
N885        N  0.13596310  0.80974429  0.70499405     0.66800
H886        H  0.06987241  0.80398470  0.74703963     0.15700
H887        H  0.09571624  0.69925062  0.62689169     0.15400
N888        N  0.02782909  0.69428263  0.66387360     0.74500
O889        O  0.12958681  0.84003586  0.67955912    -0.39000
O890        O  0.15810461  0.81073784  0.74391843    -0.38900
O891        O  0.02824750  0.66174909  0.68474658    -0.39600
O892        O  0.01625910  0.69673122  0.61815033    -0.39700
C893        C  0.27197653  0.57595591  0.64511987    -0.12000
C894        C  0.24818526  0.60772354  0.65837465     0.05000
C895        C  0.22023271  0.60145477  0.69496346    -0.07300
C896        C  0.21827319  0.56535082  0.71923605    -0.08000
C897        C  0.24538844  0.53449116  0.71122117    -0.02600
C898        C  0.27038306  0.53985902  0.66938503     0.04300
N899        N  0.29508566  0.50945256  0.65095018     0.66800
H900        H  0.29199178  0.57896316  0.61457997     0.15700
H901        H  0.19445405  0.56220027  0.74412307     0.15400
N902        N  0.19161606  0.63051377  0.70558784     0.74500
O903        O  0.28256477  0.48927469  0.61459833    -0.39000
O904        O  0.33142483  0.51144310  0.65795454    -0.38900
O905        O  0.15851930  0.62918539  0.68382473    -0.39600
O906        O  0.19608651  0.65125528  0.74438557    -0.39700
C907        C  0.21917900  0.91810124  0.64713779    -0.12000
C908        C  0.24497201  0.88706585  0.66016943     0.05000
C909        C  0.27308083  0.89388852  0.69838610    -0.07300
C910        C  0.27510745  0.92990960  0.72258597    -0.08000
C911        C  0.24741002  0.96049162  0.71351476    -0.02600
C912        C  0.21971171  0.95391784  0.67304286     0.04300
N913        N  0.19338955  0.98395932  0.65538196     0.66800
H914        H  0.19831256  0.91464748  0.61600160     0.15700
H915        H  0.29943588  0.93280883  0.74862171     0.15400
N916        N  0.30066458  0.86448481  0.71293810     0.74500
O917        O  0.19785617  0.99885056  0.61250557    -0.39000
O918        O  0.16287491  0.99192065  0.67887484    -0.38900
O919        O  0.33296397  0.86216847  0.69185445    -0.39600
O920        O  0.29602153  0.84640109  0.75338969    -0.39700
C921        C  0.41567353  0.56410218  0.54256321    -0.12000
C922        C  0.44102454  0.58235288  0.57710839     0.05000
C923        C  0.43171498  0.61897812  0.59527389    -0.07300
C924        C  0.40145445  0.63964490  0.57145821    -0.08000
C925        C  0.37924008  0.62367348  0.53190000    -0.02600
C926        C  0.38477677  0.58476789  0.51927252     0.04300
N927        N  0.36148384  0.56674506  0.48093791     0.66800
H928        H  0.42169985  0.53471218  0.53104951     0.15700
H929        H  0.39456253  0.66844324  0.58459478     0.15400
N930        N  0.45181292  0.63524242  0.63818422     0.74500
O931        O  0.37308492  0.56596169  0.43611875    -0.39000
O932        O  0.33623168  0.54336872  0.49387995    -0.38900
O933        O  0.44900766  0.67086796  0.64560351    -0.39600
O934        O  0.46517664  0.61404591  0.67368733    -0.39700
C935        C  0.09345928  0.64874159  0.42444898    -0.12000
C936        C  0.12886696  0.63019479  0.43935235     0.05000
C937        C  0.13615611  0.59231695  0.42193698    -0.07300
C938        C  0.10541774  0.57173843  0.40087557    -0.08000
C939        C  0.06797016  0.58839795  0.39905646    -0.02600
C940        C  0.06313476  0.62818085  0.40296908     0.04300
N941        N  0.02508616  0.64568317  0.39723294     0.66800
H942        H  0.08829313  0.67879171  0.43221921     0.15700
H943        H  0.10947674  0.54113996  0.39504073     0.15400
N944        N  0.17309192  0.57319765  0.42864415     0.74500
O945        O  0.01050671  0.66325504  0.43413853    -0.39000
O946        O  0.00333914  0.63680612  0.35993383    -0.38900
O947        O  0.17883361  0.55078767  0.46578175    -0.39600
O948        O  0.19395002  0.56920084  0.39058606    -0.39700
C949        C  0.07528492  0.89222747  0.39935377    -0.12000
C950        C  0.06563430  0.92293848  0.43055177     0.05000
C951        C  0.09117014  0.93325988  0.47074507    -0.07300
C952        C  0.12026720  0.90741272  0.48702168    -0.08000
C953        C  0.12658801  0.87368613  0.45967622    -0.02600
C954        C  0.10782329  0.86877450  0.41177349     0.04300
N955        N  0.12306542  0.84243375  0.37486025     0.63000
H956        H  0.05732971  0.88680889  0.36607235     0.15700
H957        H  0.13760757  0.91344283  0.52092418     0.15400
N958        N  0.08658780  0.96929112  0.49594937     0.74500
O959        O  0.10290333  0.83430418  0.33587897    -0.39000
O960        O  0.15907155  0.83462071  0.37490037    -0.38900
O961        O  0.07221745  0.97111439  0.53922391    -0.39600
O962        O  0.10141352  0.99861157  0.47743345    -0.39700
C963        C  0.40003555  0.93439317  0.53714229    -0.12000
C964        C  0.42112087  0.92524523  0.58201422     0.05000
C965        C  0.41079324  0.89415737  0.61135384    -0.07300
C966        C  0.38545208  0.86754835  0.59042311    -0.08000
C967        C  0.36921900  0.87342156  0.54154998    -0.02600
C968        C  0.37375939  0.90863267  0.51676934     0.04300
N969        N  0.35387965  0.91752188  0.46975147     0.66800
H970        H  0.40700248  0.95957650  0.51545695     0.15700
H971        H  0.37824391  0.84250898  0.61217031     0.15400
N972        N  0.42333520  0.89156727  0.66324559     0.74500
O973        O  0.32222808  0.93664732  0.47011388    -0.39000
O974        O  0.37208786  0.91487526  0.42914589    -0.38900
O975        O  0.39981938  0.90280248  0.69609617    -0.39600
O976        O  0.45918630  0.89035495  0.67474692    -0.39700
C977        C  0.03138002  0.75380273  0.33472486    -0.12000
C978        C  0.03166352  0.75098989  0.28159776     0.05000
C979        C  0.06951841  0.74938005  0.26008748    -0.07300
C980        C  0.10410711  0.74784653  0.29077776    -0.08000
C981        C  0.10340019  0.74958438  0.34373174    -0.02600
C982        C  0.06573057  0.75366792  0.36530116     0.04300
N983        N  0.06108430  0.76063821  0.41821343     0.66800
H984        H  0.00435202  0.75864245  0.35361850     0.15700
H985        H  0.13187273  0.74588840  0.27260805     0.15400
N986        N  0.07378024  0.74989334  0.20655869     0.74500
O987        O  0.06169077  0.79475455  0.43416043    -0.39000
O988        O  0.04521699  0.73571423  0.44465226    -0.38900
O989        O  0.08317404  0.78079522  0.18585577    -0.39600
O990        O  0.07952366  0.71860140  0.18359952    -0.39700
C991        C  0.38579153  0.77085642  0.29842711    -0.12000
C992        C  0.38477604  0.74419560  0.33771439     0.05000
C993        C  0.41705849  0.71879021  0.34514002    -0.07300
C994        C  0.44953225  0.72112536  0.31450906    -0.08000
C995        C  0.45316859  0.75016790  0.27767158    -0.02600
C996        C  0.41863670  0.77439504  0.26820281     0.04300
N997        N  0.41416813  0.80187921  0.22770264     0.66800
H998        H  0.36085222  0.79005269  0.29160177     0.15700
H999        H  0.47316243  0.70045229  0.32109630     0.15400
N1000       N  0.41733885  0.68991961  0.38357024     0.74500
O1001       O  0.41361898  0.83705968  0.23906762    -0.39000
O1002       O  0.39479335  0.79254018  0.18855165    -0.38900
O1003       O  0.41096105  0.65559267  0.37129262    -0.39600
O1004       O  0.43252895  0.69691814  0.42655455    -0.39700
C1005       C  0.25990122  0.88646525  0.29177194    -0.12000
C1006       C  0.24743785  0.88637662  0.34175819     0.05000
C1007       C  0.23434654  0.92200974  0.36181896    -0.07300
C1008       C  0.23682712  0.95586525  0.33382637    -0.08000
C1009       C  0.25227361  0.95769116  0.28567228    -0.02600
C1010       C  0.26095607  0.92095201  0.26324183     0.04300
N1011       N  0.26690226  0.91698632  0.21038744     0.66800
H1012       H  0.26790978  0.85946479  0.27403427     0.15700
H1013       H  0.22297546  0.98115731  0.34884198     0.15400
N1014       N  0.21495592  0.92445759  0.40889406     0.74500
O1015       O  0.29917479  0.90403665  0.19546502    -0.39000
O1016       O  0.23760819  0.91674632  0.18047856    -0.38900
O1017       O  0.23455142  0.93067999  0.44909099    -0.39600
O1018       O  0.17880810  0.93153557  0.40814431    -0.39700
C1019       C  0.27448911  0.57706960  0.36451232    -0.12000
C1020       C  0.26218195  0.61097615  0.33910786     0.05000
C1021       C  0.25235286  0.60743307  0.28756536    -0.07300
C1022       C  0.25281802  0.57093280  0.26432568    -0.08000
C1023       C  0.25891624  0.53533024  0.29075846    -0.02600
C1024       C  0.27187755  0.54004097  0.34345578     0.04300
N1025       N  0.28175570  0.50988727  0.37927117     0.66800
H1026       H  0.28460189  0.57869177  0.40370531     0.15700
H1027       H  0.24768486  0.57144641  0.22426101     0.15400
N1028       N  0.24149517  0.64030869  0.25762184     0.74500
O1029       O  0.31710008  0.50136664  0.38813785    -0.39000
O1030       O  0.25947544  0.50630416  0.41599043    -0.38900
O1031       O  0.26611749  0.65416737  0.22885918    -0.39600
O1032       O  0.20585966  0.64833978  0.24958983    -0.39700
O1033       O  0.75418174  0.18236079  0.35116476    -0.79800
O1034       O  0.75206489  0.17947049  0.64600086    -0.81400
O1035       O  0.81673864  0.13683269  0.50996309    -0.78400
O1036       O  0.69475707  0.14041759  0.47873593    -0.76800
O1037       O  0.64815808  0.18737075  0.48660631    -0.78600
O1038       O  0.86166309  0.18384077  0.50874093    -0.79500
O1039       O  0.74954666  0.13741758  0.57915792    -0.80900
O1040       O  0.76010478  0.14151075  0.41857973    -0.81100
Eu1041     Eu  0.75519019  0.17232865  0.50027498     2.39200
O1042       O  0.71705300  0.20984468  0.55511151    -0.88600
O1043       O  0.79185789  0.21050961  0.44740584    -0.92300
C1044       C  0.75858107  0.14804494  0.37068550     1.02400
C1045       C  0.74977765  0.14477364  0.62687412     1.02300
C1046       C  0.85159301  0.14882578  0.51456223     1.02200
C1047       C  0.65962726  0.15348464  0.47325060     1.00100
H1048       H  0.81051424  0.19336857  0.57591027     0.29800
O1049       O  0.79411205  0.20973720  0.55488367    -1.01000
H1050       H  0.70045244  0.19686862  0.42430583     0.29800
O1051       O  0.71618812  0.21208699  0.44744863    -1.03600
O1052       O  0.75380229  0.31743682  0.64473713    -0.80800
O1053       O  0.74914076  0.31567506  0.35249397    -0.80300
O1054       O  0.86936141  0.24704082  0.58176865    -0.78800
O1055       O  0.64542609  0.25005411  0.58250552    -0.82100
O1056       O  0.63768239  0.24652568  0.42564495    -0.80000
O1057       O  0.86435803  0.24488109  0.42144773    -0.78600
O1058       O  0.81185440  0.35677806  0.51200176    -0.80100
O1059       O  0.69305721  0.35847494  0.48622048    -0.82100
O1060       O  0.85987933  0.31047521  0.51888435    -0.78800
O1061       O  0.64736503  0.31240969  0.48060481    -0.81500
O1062       O  0.82744373  0.24637144  0.64764421    -0.77200
O1063       O  0.81851193  0.24659679  0.35623235    -0.77300
O1064       O  0.67818253  0.24786778  0.35868258    -0.76900
O1065       O  0.69061018  0.25097895  0.64836715    -0.80400
O1066       O  0.74639973  0.35957080  0.57822045    -0.79800
O1067       O  0.75383906  0.35632147  0.41991088    -0.78100
Eu1068     Eu  0.75673824  0.24810995  0.61040548     2.39800
Eu1069     Eu  0.75092458  0.24883641  0.39122565     2.39600
Eu1070     Eu  0.83126787  0.24751685  0.50185649     2.38400
Eu1071     Eu  0.67761617  0.24920765  0.50132226     2.39900
Eu1072     Eu  0.75286633  0.32312987  0.50043780     2.39800
O1073       O  0.71360120  0.28641950  0.44720053    -0.92600
O1074       O  0.79286611  0.28535891  0.55471423    -0.91500
C1075       C  0.74884143  0.35217228  0.62585386     1.02600
C1076       C  0.75079201  0.34999676  0.37215459     1.01300
C1077       C  0.86261792  0.24671373  0.62951203     1.00700
C1078       C  0.65505594  0.25079575  0.63006724     1.02700
C1079       C  0.64326470  0.24695224  0.37800447     1.01600
C1080       C  0.85430810  0.24473674  0.37403969     1.00500
C1081       C  0.84685363  0.34546022  0.52167418     1.00600
C1082       C  0.65861974  0.34725209  0.47660234     1.03200
H1083       H  0.80841075  0.30282714  0.42701403     0.30500
O1084       O  0.79186359  0.28612657  0.44647484    -1.04700
H1085       H  0.69857341  0.30389345  0.57410553     0.32600
O1086       O  0.71567547  0.28703493  0.55522802    -1.07300
N1087       N  0.49201375  0.45018147  0.51167003    -0.36300
N1088       N  0.50772033  0.00604384  0.42885284    -0.56900
N1089       N  0.50148512  0.06522643  0.50540414    -0.36300
N1090       N  0.99485857  0.99705886  0.60540410    -0.56900
C1091       C  0.50820052  0.42662847  0.47722085     0.27300
C1092       C  0.98624827  0.43124155  0.54860024     0.27300
C1093       C  0.53505285  0.06921609  0.48198415     0.27300
C1094       C  0.00988266  0.06545492  0.55533639     0.27300
C1095       C  0.51745490  0.47167026  0.40642041     0.35900
C1096       C  0.52294399  0.03493864  0.40313170     0.35900
C1097       C  0.96831626  0.47667309  0.61410932     0.35900
C1098       C  0.98241725  0.03096128  0.62395602     0.35900
C1099       C  0.51173481  0.38955658  0.49645996    -0.21600
C1100       C  0.99562575  0.39308972  0.53977989    -0.21600
C1101       C  0.56515992  0.07391889  0.51773649    -0.21600
C1102       C  0.04915979  0.06985513  0.56449487    -0.21600
C1103       C  0.53289988  0.47992259  0.35995130    -0.22700
C1104       C  0.53603669  0.02195033  0.35695621    -0.22700
C1105       C  0.94259595  0.49269265  0.64756946    -0.22700
C1106       C  0.95235667  0.02545502  0.65670262    -0.22700
C1107       C  0.52714963  0.43839814  0.43377089    -0.18000
C1108       C  0.96192371  0.44333299  0.58675038    -0.18000
C1109       C  0.98208731  0.06291674  0.59233579    -0.18000
C1110       C  0.53884917  0.06597003  0.42915199    -0.18000
H1111       H  0.52435538  0.36458087  0.47815397     0.14900
H1112       H  0.99121748  0.36900516  0.56464184     0.14900
H1113       H  0.59571386  0.07688071  0.51119300     0.14900
H1114       H  0.06429778  0.07144643  0.60093166     0.14900
H1115       H  0.54655994  0.45979165  0.33437671     0.13200
H1116       H  0.55298434  0.03752414  0.33039953     0.13200
H1117       H  0.91656560  0.48016636  0.66148089     0.13200
H1118       H  0.93385095  0.04767509  0.67241054     0.13200
H1119       H  0.48491263  0.47935489  0.50822611     0.26400
H1120       H  0.47450763  0.06142647  0.48728960     0.26400
O1121       O  0.00638871  0.43170485  0.85674286    -0.79800
O1122       O  0.99720467  0.42877212  0.14489843    -0.81400
O1123       O  0.55664880  0.38882829  0.02185881    -0.78400
O1124       O  0.93163543  0.39733011  0.98616839    -0.76800
O1125       O  0.88677644  0.44621185  0.98968410    -0.78600
O1126       O  0.60499358  0.43241670  0.02533774    -0.79500
O1127       O  0.99257230  0.38830260  0.07708813    -0.80900
O1128       O  0.00499187  0.38808876  0.92156181    -0.81100
Eu1129     Eu  0.99744584  0.42390264  0.99984772     2.39200
O1130       O  0.95854371  0.46245356  0.05209304    -0.88600
O1131       O  0.53900536  0.45851595  0.94879997    -0.92300
C1132       C  0.00675647  0.39647673  0.87430080     1.02400
C1133       C  0.99481188  0.39428422  0.12486802     1.02300
C1134       C  0.59173737  0.39859687  0.03269731     1.02200
C1135       C  0.89629408  0.41092913  0.98315884     1.00100
H1136       H  0.54919367  0.44574516  0.07833606     0.29800
O1137       O  0.53442104  0.46136015  0.05499451    -1.01000
H1138       H  0.94686183  0.44830392  0.92269761     0.29800
O1139       O  0.96242380  0.46451891  0.94465078    -1.03600
O1140       O  0.99625394  0.06565543  0.15074508    -0.80800
O1141       O  0.00441114  0.07007715  0.85741962    -0.80300
O1142       O  0.61051825  0.50031181  0.08407763    -0.78800
O1143       O  0.88570899  0.50343426  0.07363024    -0.82100
O1144       O  0.88906044  0.99714312  0.91287138    -0.80000
O1145       O  0.61259651  0.99667785  0.92569263    -0.78600
O1146       O  0.55739743  0.10742333  0.01555702    -0.80100
O1147       O  0.93745121  0.11189537  0.98768035    -0.82100
O1148       O  0.60395482  0.05937222  0.01786073    -0.78800
O1149       O  0.89120653  0.06680186  0.97734773    -0.81500
O1150       O  0.56743341  0.50248692  0.14820692    -0.77200
O1151       O  0.56965430  0.99727777  0.85758094    -0.77300
O1152       O  0.93351991  0.99693434  0.85019253    -0.76900
O1153       O  0.92785700  0.49877976  0.14209312    -0.80400
O1154       O  0.99438962  0.10892152  0.08539051    -0.79800
O1155       O  0.00255268  0.11189776  0.92453810    -0.78100
Eu1156     Eu  0.99696798  0.49859904  0.11088147     2.39800
Eu1157     Eu  0.00158406  0.00049330  0.89148472     2.39600
Eu1158     Eu  0.57639275  0.49631447  0.00454672     2.38400
Eu1159     Eu  0.92283570  0.50328191  0.99604693     2.39900
Eu1160     Eu  0.99757013  0.07607966  0.00302240     2.39800
O1161       O  0.96170988  0.03983624  0.94426562    -0.92600
O1162       O  0.53471656  0.03454686  0.05560627    -0.91500
C1163       C  0.99495065  0.10069355  0.13306526     1.02600
C1164       C  0.00441849  0.10485166  0.87688320     1.01300
C1165       C  0.60284774  0.50328629  0.13086001     1.00700
C1166       C  0.89274929  0.50071742  0.12169641     1.02700
C1167       C  0.89792652  0.99509216  0.86593815     1.01600
C1168       C  0.60491995  0.99684362  0.87743166     1.00500
C1169       C  0.59234130  0.09470771  0.02124986     1.00600
C1170       C  0.90326402  0.10132077  0.97455788     1.03200
H1171       H  0.55518037  0.05389685  0.93271286     0.30500
O1172       O  0.53781904  0.03777819  0.95040300    -1.04700
H1173       H  0.94008532  0.05736663  0.07294234     0.32600
O1174       O  0.95736047  0.04049189  0.05445217    -1.07300
N1175       N  0.76192485  0.19882942  0.96431447    -0.36300
N1176       N  0.75855631  0.25769732  0.88119709    -0.56900
N1177       N  0.74477006  0.31076539  0.99293220    -0.36300
N1178       N  0.74443217  0.24230301  0.05471961    -0.56900
C1179       C  0.77051156  0.18153690  0.92032580     0.27300
C1180       C  0.75086982  0.17097019  0.99594795     0.27300
C1181       C  0.73766514  0.31644427  0.94317558     0.27300
C1182       C  0.70996000  0.30789721  0.01380169     0.27300
C1183       C  0.78616247  0.23400452  0.86336448     0.35900
C1184       C  0.77008394  0.29343587  0.87095073     0.35900
C1185       C  0.73883479  0.20745406  0.07360629     0.35900
C1186       C  0.72712138  0.26740114  0.08574642     0.35900
C1187       C  0.76599628  0.14221263  0.92467948    -0.21600
C1188       C  0.75274492  0.13563908  0.97210321    -0.21600
C1189       C  0.69841370  0.31650515  0.93138800    -0.21600
C1190       C  0.68053056  0.31253253  0.97670121    -0.21600
C1191       C  0.81102338  0.25385123  0.83351026    -0.22700
C1192       C  0.79968615  0.29180888  0.83669413    -0.22700
C1193       C  0.72482607  0.21121141  0.12227350    -0.22700
C1194       C  0.71796577  0.24964751  0.13032297    -0.22700
C1195       C  0.79435332  0.19806915  0.88491061    -0.18000
C1196       C  0.73044482  0.17723270  0.04024194    -0.18000
C1197       C  0.70534814  0.29788686  0.06477687    -0.18000
C1198       C  0.76669349  0.32160525  0.90874156    -0.18000
H1199       H  0.77226227  0.12048018  0.89670653     0.14900
H1200       H  0.74444538  0.10825193  0.98716906     0.14900
H1201       H  0.68438289  0.32012559  0.89439628     0.14900
H1202       H  0.64960320  0.31052087  0.98011120     0.14900
H1203       H  0.83814631  0.24341466  0.81866343     0.13200
H1204       H  0.81771577  0.31524228  0.82630818     0.13200
H1205       H  0.71602354  0.18911316  0.14760668     0.13200
H1206       H  0.70123977  0.26170207  0.16080803     0.13200
H1207       H  0.76340904  0.22817232  0.97122529     0.26400
H1208       H  0.77199439  0.30843404  0.01154131     0.26400
C1209       C  0.49530532  0.25009519  0.24886835    -0.02200
C1210       C  0.75321099  0.49758756  0.25604864    -0.02200
C1211       C  0.51374349  0.24846980  0.75443062    -0.02200
C1212       C  0.74838706  0.49816180  0.74705345    -0.02200
C1213       C  0.70676951  0.02192718  0.17915727    -0.12000
C1214       C  0.71111595  0.50283118  0.22652623     0.05000
C1215       C  0.67331221  0.49469041  0.24641114    -0.07300
C1216       C  0.63879060  0.49651204  0.21557763    -0.08000
C1217       C  0.63884321  0.50709048  0.16476529    -0.02600
C1218       C  0.67360991  0.02152558  0.14667440     0.04300
N1219       N  0.67904170  0.03279061  0.09496033     0.66800
H1220       H  0.73133358  0.03593354  0.16412625     0.15700
H1221       H  0.61147117  0.48909106  0.23189390     0.15400
N1222       N  0.66697166  0.48862649  0.29863442     0.74500
O1223       O  0.67819401  0.00756630  0.06077529    -0.39000
O1224       O  0.69311696  0.56414803  0.08721717    -0.38900
O1225       O  0.65642713  0.00612132  0.32832179    -0.39600
O1226       O  0.65247839  0.45738326  0.31183281    -0.39700
C1227       C  0.78801049  0.49023552  0.16757377    -0.12000
C1228       C  0.79072499  0.49596280  0.22063434     0.05000
C1229       C  0.83014758  0.49819171  0.23989592    -0.07300
C1230       C  0.86212752  0.50016271  0.20756650    -0.08000
C1231       C  0.85760840  0.49931270  0.15490767    -0.02600
C1232       C  0.81926760  0.49451600  0.13522212     0.04300
N1233       N  0.81082079  0.49266129  0.08210366     0.66800
H1234       H  0.76164594  0.48059109  0.14942526     0.15700
H1235       H  0.89116929  0.50160739  0.22442758     0.15400
N1236       N  0.83989292  0.49490161  0.29223914     0.74500
O1237       O  0.79978937  0.46130585  0.06357373    -0.39000
O1238       O  0.79826400  0.02152767  0.05737969    -0.38900
O1239       O  0.84233896  0.46153351  0.31093394    -0.39600
O1240       O  0.85563563  0.02882703  0.30975343    -0.39700
C1241       C  0.49964120  0.35949781  0.21019030    -0.12000
C1242       C  0.99557265  0.35773526  0.15664376     0.05000
C1243       C  0.99485107  0.32030984  0.13408160    -0.07300
C1244       C  0.99726816  0.28681730  0.16369538    -0.08000
C1245       C  0.49784357  0.28818364  0.21716032    -0.02600
C1246       C  0.50015977  0.32561590  0.24000511     0.04300
N1247       N  0.50380879  0.33021102  0.29363541     0.66800
H1248       H  0.50092717  0.38710079  0.22899596     0.15700
H1249       H  0.99896263  0.25972421  0.14407202     0.15400
N1250       N  0.98910650  0.31491442  0.08084091     0.74500
O1251       O  0.53700139  0.33662944  0.31256933    -0.39000
O1252       O  0.47442858  0.34017218  0.31831318    -0.38900
O1253       O  0.01550747  0.29836213  0.05618606    -0.39600
O1254       O  0.95471436  0.31530016  0.06292886    -0.39700
C1255       C  0.96641053  0.16525567  0.15392954    -0.12000
C1256       C  0.99265917  0.13526178  0.16764115     0.05000
C1257       C  0.51849499  0.14192203  0.20948288    -0.07300
C1258       C  0.51881116  0.17822717  0.23368528    -0.08000
C1259       C  0.49434202  0.21020748  0.21809677    -0.02600
C1260       C  0.96500187  0.20069970  0.17983255     0.04300
N1261       N  0.93181022  0.22495418  0.16895237     0.66800
H1262       H  0.94532891  0.16061375  0.12331271     0.15700
H1263       H  0.53804022  0.18017746  0.26659720     0.15400
N1264       N  0.54391281  0.11200823  0.22905441     0.74500
O1265       O  0.92876185  0.24084715  0.12603793    -0.39000
O1266       O  0.90098342  0.21774257  0.19138605    -0.38900
O1267       O  0.58001241  0.11748604  0.23223013    -0.39600
O1268       O  0.52992993  0.08634498  0.25619183    -0.39700
C1269       C  0.67727035  0.35214333  0.10481569    -0.12000
C1270       C  0.67203442  0.31445294  0.09069081     0.05000
C1271       C  0.63478906  0.30272343  0.07563198    -0.07300
C1272       C  0.60810121  0.33059791  0.05675522    -0.08000
C1273       C  0.61739877  0.36968508  0.05870571    -0.02600
C1274       C  0.65052364  0.38007258  0.08810917     0.04300
N1275       N  0.65866765  0.41858282  0.10056992     0.66800
H1276       H  0.70521492  0.36078976  0.12044497     0.15700
H1277       H  0.58205483  0.32150578  0.03695361     0.15400
N1278       N  0.62724105  0.26282382  0.06963962     0.74500
O1279       O  0.65151209  0.42922173  0.14492824    -0.39000
O1280       O  0.68610500  0.43388427  0.07822858    -0.38900
O1281       O  0.62834090  0.24116049  0.10786153    -0.39600
O1282       O  0.62551497  0.24818209  0.02608565    -0.39700
C1283       C  0.83854974  0.33123091  0.92308261    -0.12000
C1284       C  0.80006697  0.34553242  0.92610685     0.05000
C1285       C  0.79363443  0.38046315  0.95231642    -0.07300
C1286       C  0.82546179  0.40006382  0.97234402    -0.08000
C1287       C  0.86394518  0.38597758  0.96772532    -0.02600
C1288       C  0.87020096  0.35122256  0.94209691     0.04300
N1289       N  0.90842578  0.33668209  0.93214447     0.66800
H1290       H  0.84488857  0.30373014  0.90687239     0.15700
H1291       H  0.81989681  0.42744141  0.98994309     0.15400
N1292       N  0.75515754  0.39554528  0.96142776     0.74500
O1293       O  0.92753453  0.31834581  0.96612033    -0.39000
O1294       O  0.91934934  0.33484096  0.88709827    -0.38900
O1295       O  0.74590282  0.40422312  0.00591346    -0.39600
O1296       O  0.72948448  0.39741064  0.92628491    -0.39700
C1297       C  0.84138645  0.14763471  0.87114404    -0.12000
C1298       C  0.83451826  0.18388050  0.89094237     0.05000
C1299       C  0.85547641  0.19513588  0.93512218    -0.07300
C1300       C  0.87631499  0.16774771  0.96431929    -0.08000
C1301       C  0.87816406  0.12966034  0.94797379    -0.02600
C1302       C  0.86204382  0.12040498  0.90003684     0.04300
N1303       N  0.86727067  0.08343823  0.87920547     0.66800
H1304       H  0.82623838  0.13888934  0.83657580     0.15700
H1305       H  0.89182933  0.17637161  0.99862543     0.15400
N1306       N  0.85848177  0.23463864  0.94778047     0.74500
O1307       O  0.83825625  0.06219018  0.87562106    -0.39000
O1308       O  0.89624660  0.07723315  0.85207949    -0.38900
O1309       O  0.83486142  0.25046414  0.97735327    -0.39600
O1310       O  0.88860707  0.25183448  0.93571649    -0.39700
C1311       C  0.63231944  0.14484686  0.99068041    -0.12000
C1312       C  0.62138293  0.12286650  0.03124079     0.05000
C1313       C  0.64136485  0.12470231  0.07830383    -0.07300
C1314       C  0.67741458  0.14212897  0.08038256    -0.08000
C1315       C  0.69056022  0.16213148  0.03860664    -0.02600
C1316       C  0.66595675  0.16568676  0.99416078     0.04300
N1317       N  0.67583223  0.18732972  0.95045293     0.66800
H1318       H  0.61555334  0.14443674  0.95521309     0.15700
H1319       H  0.69594070  0.13801247  0.11369376     0.15400
N1320       N  0.62565411  0.10887422  0.12342450     0.74500
O1321       O  0.68307616  0.16942464  0.91014909    -0.39000
O1322       O  0.66473406  0.22204280  0.94705710    -0.38900
O1323       O  0.64684845  0.10448829  0.16298986    -0.39600
O1324       O  0.58936485  0.10577456  0.12667161    -0.39700
C1325       C  0.82003636  0.52112527  0.76680358    -0.12000
C1326       C  0.78593518  0.99925551  0.78151356     0.05000
C1327       C  0.79374770  0.97397698  0.82337578    -0.07300
C1328       C  0.83105685  0.97119074  0.84712926    -0.08000
C1329       C  0.86300729  0.99155826  0.83004579    -0.02600
C1330       C  0.85620170  0.01562066  0.78752506     0.04300
N1331       N  0.88758635  0.03416377  0.76355855     0.66800
H1332       H  0.81642604  0.54370699  0.73957732     0.15700
H1333       H  0.83492284  0.95297795  0.88024936     0.15400
N1334       N  0.76422067  0.95071874  0.84295605     0.74500
O1335       O  0.92150836  0.51430646  0.75622061    -0.39000
O1336       O  0.88162973  0.06551593  0.74022604    -0.38900
O1337       O  0.76866143  0.41402082  0.83344476    -0.39600
O1338       O  0.74525258  0.96325526  0.87982485    -0.39700
C1339       C  0.66861508  0.02472155  0.85178595    -0.12000
C1340       C  0.63972011  0.99732141  0.84360186     0.05000
C1341       C  0.64911338  0.46832097  0.80774126    -0.07300
C1342       C  0.68376920  0.46788056  0.78022700    -0.08000
C1343       C  0.70984821  0.99782247  0.78384075    -0.02600
C1344       C  0.70290142  0.02540282  0.82320794     0.04300
N1345       N  0.73069973  0.05386951  0.83638065     0.66800
H1346       H  0.66467459  0.04604026  0.88120711     0.15700
H1347       H  0.68780206  0.44346730  0.75578339     0.15400
N1348       N  0.62225720  0.43822074  0.79922913     0.74500
O1349       O  0.75629266  0.04587710  0.87022041    -0.39000
O1350       O  0.72451506  0.58828824  0.82717923    -0.38900
O1351       O  0.59683375  0.94108272  0.76036912    -0.39600
O1352       O  0.62710321  0.40708993  0.82328809    -0.39700
C1353       C  0.99026255  0.20882614  0.82883073    -0.12000
C1354       C  0.51774163  0.21215029  0.79149510     0.05000
C1355       C  0.54622353  0.18087895  0.79072788    -0.07300
C1356       C  0.53876272  0.14507656  0.81394430    -0.08000
C1357       C  0.00755154  0.14057235  0.84458619    -0.02600
C1358       C  0.98457635  0.17400556  0.85408821     0.04300
N1359       N  0.95245884  0.17275096  0.88620428     0.66800
H1360       H  0.97000698  0.23254508  0.83543617     0.15700
H1361       H  0.56029789  0.12188312  0.81202958     0.15400
N1362       N  0.58555188  0.18619729  0.77661942     0.74500
O1363       O  0.95711553  0.18333172  0.93160691    -0.39000
O1364       O  0.91914854  0.17580944  0.86531936    -0.38900
O1365       O  0.60800722  0.20272337  0.80776436    -0.39600
O1366       O  0.60059258  0.16285250  0.74592465    -0.39700
C1367       C  0.53669135  0.33248273  0.85228380    -0.12000
C1368       C  0.00960332  0.36183681  0.83986856     0.05000
C1369       C  0.98025576  0.35250377  0.80369446    -0.07300
C1370       C  0.98053135  0.31572601  0.78035927    -0.08000
C1371       C  0.51048321  0.28696362  0.78814079    -0.02600
C1372       C  0.53776167  0.29615996  0.82819248     0.04300
N1373       N  0.56768253  0.26954300  0.84505995     0.66800
H1374       H  0.55794841  0.33790451  0.88243147     0.15700
H1375       H  0.95645849  0.31041651  0.75460982     0.15400
N1376       N  0.94845039  0.37895133  0.79213383     0.74500
O1377       O  0.60252059  0.27716017  0.83646433    -0.39000
O1378       O  0.56107907  0.24796789  0.88199544    -0.38900
O1379       O  0.95451390  0.41408671  0.78510775    -0.39600
O1380       O  0.91472264  0.36658463  0.78356846    -0.39700
C1381       C  0.94329098  0.22159209  0.73102806    -0.12000
C1382       C  0.97453386  0.24625072  0.71954212     0.05000
C1383       C  0.96696242  0.27011739  0.67595242    -0.07300
C1384       C  0.93037108  0.27036114  0.64949564    -0.08000
C1385       C  0.89916880  0.24753768  0.66369775    -0.02600
C1386       C  0.90650937  0.22248636  0.70491719     0.04300
N1387       N  0.87891804  0.19415955  0.71711762     0.66800
H1388       H  0.94680706  0.19903245  0.75840114     0.15700
H1389       H  0.92652428  0.28873839  0.61656822     0.15400
N1390       N  0.99632562  0.29390286  0.65655321     0.74500
O1391       O  0.87783061  0.16343334  0.69186515    -0.39000
O1392       O  0.86337241  0.19530165  0.75964179    -0.38900
O1393       O  0.01072526  0.28574183  0.61443613    -0.39600
O1394       O  0.00115631  0.32692267  0.67479744    -0.39700
C1395       C  0.57803801  0.27977499  0.72479230    -0.12000
C1396       C  0.55081031  0.24970849  0.72019482     0.05000
C1397       C  0.55921184  0.22156614  0.68229915    -0.07300
C1398       C  0.59430348  0.22172231  0.65652007    -0.08000
C1399       C  0.62179145  0.24998503  0.66462798    -0.02600
C1400       C  0.61306541  0.27971914  0.69857029     0.04300
N1401       N  0.63795549  0.31172294  0.70416281     0.66800
H1402       H  0.57244609  0.30483699  0.74747339     0.15700
H1403       H  0.59955312  0.19975918  0.62823467     0.15400
N1404       N  0.53176163  0.19406913  0.66554095     0.74500
O1405       O  0.63219706  0.34062575  0.67587480    -0.39000
O1406       O  0.65889760  0.31479250  0.74393810    -0.38900
O1407       O  0.53335915  0.16118901  0.68552001    -0.39600
O1408       O  0.51900183  0.19698710  0.62035434    -0.39700
C1409       C  0.77220436  0.07722679  0.64648014    -0.12000
C1410       C  0.74864752  0.10918328  0.65954302     0.05000
C1411       C  0.72021772  0.10309510  0.69558778    -0.07300
C1412       C  0.71741654  0.06680863  0.71928279    -0.08000
C1413       C  0.74422484  0.03563940  0.71136714    -0.02600
C1414       C  0.76986724  0.04103106  0.67022750     0.04300
N1415       N  0.79493281  0.01067452  0.65246971     0.66800
H1416       H  0.79270916  0.08018295  0.61648955     0.15700
H1417       H  0.69326948  0.06375890  0.74366624     0.15400
N1418       N  0.69207463  0.13259403  0.70627613     0.74500
O1419       O  0.78292579  0.99031377  0.61602284    -0.39000
O1420       O  0.83119766  0.01297311  0.66000273    -0.38900
O1421       O  0.65930752  0.13243939  0.68349947    -0.39600
O1422       O  0.69652315  0.15284414  0.74553775    -0.39700
C1423       C  0.72027902  0.41799719  0.64676753    -0.12000
C1424       C  0.74669163  0.38739860  0.65914526     0.05000
C1425       C  0.77529250  0.39436991  0.69653205    -0.07300
C1426       C  0.77715257  0.43019094  0.72093315    -0.08000
C1427       C  0.74882598  0.46033417  0.71282470    -0.02600
C1428       C  0.72070281  0.45368745  0.67282727     0.04300
N1429       N  0.69392856  0.48353511  0.65568229     0.66800
H1430       H  0.69912289  0.41432512  0.61601038     0.15700
H1431       H  0.80187753  0.43327723  0.74626734     0.15400
N1432       N  0.80364775  0.36532616  0.70974576     0.74500
O1433       O  0.69747515  0.49804939  0.61238644    -0.39000
O1434       O  0.66343012  0.49091121  0.67948298    -0.38900
O1435       O  0.83635906  0.36498771  0.68966633    -0.39600
O1436       O  0.79857257  0.34464094  0.74782549    -0.39700
C1437       C  0.91772783  0.06314934  0.54708630    -0.12000
C1438       C  0.94407497  0.08135312  0.58030868     0.05000
C1439       C  0.93555005  0.11821516  0.59823499    -0.07300
C1440       C  0.90526092  0.13924604  0.57479194    -0.08000
C1441       C  0.88181555  0.12317678  0.53646474    -0.02600
C1442       C  0.88630281  0.08387591  0.52505158     0.04300
N1443       N  0.86100006  0.06521432  0.48959382     0.66800
H1444       H  0.92313283  0.03359274  0.53583511     0.15700
H1445       H  0.89922983  0.16835023  0.58741212     0.15400
N1446       N  0.95636229  0.13426688  0.64071275     0.74500
O1447       O  0.86931312  0.06480318  0.44344240    -0.39000
O1448       O  0.83766721  0.04100419  0.50560057    -0.38900
O1449       O  0.95370809  0.16985253  0.64840237    -0.39600
O1450       O  0.97006879  0.11292361  0.67587498    -0.39700
C1451       C  0.59490316  0.14877289  0.43135228    -0.12000
C1452       C  0.63073179  0.13058543  0.44510509     0.05000
C1453       C  0.63788288  0.09255788  0.42810037    -0.07300
C1454       C  0.60691290  0.07164935  0.40834605    -0.08000
C1455       C  0.56946253  0.08820762  0.40705551    -0.02600
C1456       C  0.56457286  0.12792967  0.41069179     0.04300
N1457       N  0.52670236  0.14541699  0.40409165     0.66800
H1458       H  0.58959913  0.17882757  0.43886883     0.15700
H1459       H  0.61101711  0.04108214  0.40231016     0.15400
N1460       N  0.67506970  0.07374267  0.43352819     0.74500
O1461       O  0.50917420  0.15781433  0.44226454    -0.39000
O1462       O  0.50782249  0.14061672  0.36297931    -0.38900
O1463       O  0.68260760  0.05331510  0.47219220    -0.39600
O1464       O  0.69416364  0.06779835  0.39425719    -0.39700
C1465       C  0.57905067  0.39650187  0.39949223    -0.12000
C1466       C  0.56787557  0.42485171  0.43341821     0.05000
C1467       C  0.59258579  0.43372533  0.47526692    -0.07300
C1468       C  0.62252233  0.40803388  0.48956065    -0.08000
C1469       C  0.63041319  0.37632326  0.45891757    -0.02600
C1470       C  0.61202158  0.37366866  0.41071413     0.04300
N1471       N  0.62856506  0.35091179  0.37164597     0.63000
H1472       H  0.56199279  0.39198737  0.36507439     0.15700
H1473       H  0.63924611  0.41257663  0.52440509     0.15400
N1474       N  0.58625666  0.46794711  0.50403380     0.74500
O1475       O  0.60822835  0.32578128  0.35053559    -0.39000
O1476       O  0.65632995  0.36426114  0.34774467    -0.38900
O1477       O  0.57431906  0.46625578  0.54859629    -0.39600
O1478       O  0.59648309  0.49963590  0.48651328    -0.39700
C1479       C  0.90223051  0.43611727  0.53598270    -0.12000
C1480       C  0.92285460  0.42825606  0.58154711     0.05000
C1481       C  0.91270403  0.39754337  0.61168518    -0.07300
C1482       C  0.88818205  0.36997108  0.59107383    -0.08000
C1483       C  0.87247035  0.37458223  0.54165614    -0.02600
C1484       C  0.87690032  0.40939321  0.51578258     0.04300
N1485       N  0.85831757  0.41672127  0.46750247     0.66800
H1486       H  0.90912832  0.46093511  0.51353324     0.15700
H1487       H  0.88123993  0.34516608  0.61341798     0.15400
N1488       N  0.92495344  0.39610477  0.66377039     0.74500
O1489       O  0.82686974  0.43620557  0.46530275    -0.39000
O1490       O  0.87772336  0.41264419  0.42804977    -0.38900
O1491       O  0.90147241  0.40861215  0.69594932    -0.39600
O1492       O  0.96077762  0.39488484  0.67544851    -0.39700
C1493       C  0.53378144  0.25275287  0.33626789    -0.12000
C1494       C  0.53420581  0.24995548  0.28317367     0.05000
C1495       C  0.57206397  0.24740760  0.26181342    -0.07300
C1496       C  0.60651117  0.24501324  0.29261864    -0.08000
C1497       C  0.60569154  0.24697065  0.34551154    -0.02600
C1498       C  0.56801143  0.25184267  0.36700106     0.04300
N1499       N  0.56333561  0.25990000  0.41967478     0.66800
H1500       H  0.50677120  0.25826184  0.35497611     0.15700
H1501       H  0.63429970  0.24255047  0.27457093     0.15400
N1502       N  0.57648467  0.24728899  0.20832643     0.74500
O1503       O  0.56422898  0.29434997  0.43435850    -0.39000
O1504       O  0.54668746  0.23585260  0.44667773    -0.38900
O1505       O  0.58487513  0.27824755  0.18696117    -0.39600
O1506       O  0.58419278  0.21587256  0.18657825    -0.39700
C1507       C  0.88896595  0.27207915  0.30136677    -0.12000
C1508       C  0.88709631  0.24376063  0.33840233     0.05000
C1509       C  0.91859095  0.21728072  0.34411225    -0.07300
C1510       C  0.95135153  0.22033373  0.31419579    -0.08000
C1511       C  0.95566183  0.25046123  0.27910620    -0.02600
C1512       C  0.92188810  0.27593864  0.27146750     0.04300
N1513       N  0.91812692  0.30485988  0.23278474     0.66800
H1514       H  0.86457536  0.29217751  0.29597140     0.15700
H1515       H  0.97451965  0.19909183  0.31946549     0.15400
N1516       N  0.91759475  0.18644928  0.37968203     0.74500
O1517       O  0.91628827  0.33957014  0.24639814    -0.39000
O1518       O  0.90118047  0.29646106  0.19143457    -0.38900
O1519       O  0.91155928  0.15286386  0.36389814    -0.39600
O1520       O  0.93120473  0.19115420  0.42407156    -0.39700
C1521       C  0.76094728  0.38619512  0.28980586    -0.12000
C1522       C  0.74900943  0.38587709  0.34006600     0.05000
C1523       C  0.73562155  0.42135015  0.36034665    -0.07300
C1524       C  0.73729440  0.45523435  0.33235504    -0.08000
C1525       C  0.75271057  0.45744757  0.28429862    -0.02600
C1526       C  0.76157127  0.42084529  0.26146204     0.04300
N1527       N  0.76793696  0.41726668  0.20860592     0.66800
H1528       H  0.76918860  0.35932980  0.27189495     0.15700
H1529       H  0.72416561  0.48035836  0.34837202     0.15400
N1530       N  0.71782814  0.42384580  0.40853402     0.74500
O1531       O  0.80043942  0.40471837  0.19393427    -0.39000
O1532       O  0.73892583  0.41730529  0.17818754    -0.38900
O1533       O  0.73893451  0.42921189  0.44768074    -0.39600
O1534       O  0.68208602  0.43261397  0.40983811    -0.39700
C1535       C  0.77400103  0.07789367  0.36416479    -0.12000
C1536       C  0.76186079  0.11191182  0.33911457     0.05000
C1537       C  0.75148442  0.10870327  0.28765636    -0.07300
C1538       C  0.75136074  0.07230618  0.26417080    -0.08000
C1539       C  0.75769806  0.03660074  0.29027078    -0.02600
C1540       C  0.77116846  0.04103495  0.34285273     0.04300
N1541       N  0.78192049  0.01079513  0.37821386     0.66800
H1542       H  0.78450416  0.07930304  0.40321855     0.15700
H1543       H  0.74563636  0.07299555  0.22421184     0.15400
N1544       N  0.74076243  0.14181191  0.25803766     0.74500
O1545       O  0.81753153  0.00377658  0.38742404    -0.39000
O1546       O  0.75983986  0.00645175  0.41496631    -0.38900
O1547       O  0.76540052  0.15567333  0.22929563    -0.39600
O1548       O  0.70516234  0.15012151  0.25021183    -0.39700
O1549       O  0.75258234  0.68230619  0.34961210    -0.79800
O1550       O  0.75039618  0.67880982  0.64400406    -0.81400
O1551       O  0.81327232  0.63699283  0.50545871    -0.78400
O1552       O  0.69220877  0.64030605  0.47659965    -0.76800
O1553       O  0.64524742  0.68702390  0.48313884    -0.78600
O1554       O  0.85793446  0.68419163  0.50251265    -0.79500
O1555       O  0.74816192  0.63689315  0.57700427    -0.80900
O1556       O  0.75768276  0.64145951  0.41707738    -0.81100
Eu1557     Eu  0.75216531  0.67258920  0.49830176     2.39200
O1558       O  0.71395156  0.70955813  0.55354844    -0.88600
O1559       O  0.78879106  0.71089955  0.44550991    -0.92300
C1560       C  0.75685392  0.64793157  0.36921774     1.02400
C1561       C  0.74866607  0.64408049  0.62478549     1.02300
C1562       C  0.84802973  0.64916983  0.50844929     1.02200
C1563       C  0.65710949  0.65314730  0.47020620     1.00100
H1564       H  0.80799206  0.69335123  0.57337490     0.29800
O1565       O  0.79129698  0.70984102  0.55289017    -1.01000
H1566       H  0.69790644  0.69703796  0.42194814     0.29800
O1567       O  0.71336394  0.71217645  0.44510560    -1.03600
O1568       O  0.75136028  0.81721225  0.64430188    -0.80800
O1569       O  0.74695903  0.81679981  0.35225580    -0.80300
O1570       O  0.86626960  0.74704119  0.57978181    -0.78800
O1571       O  0.64225337  0.74936240  0.58026845    -0.82100
O1572       O  0.63554296  0.74660837  0.42292876    -0.80000
O1573       O  0.86148803  0.74621872  0.41941438    -0.78600
O1574       O  0.80865646  0.85699063  0.51137931    -0.80100
O1575       O  0.68931948  0.85797563  0.48538860    -0.82100
O1576       O  0.85674639  0.81063887  0.51652468    -0.78800
O1577       O  0.64388293  0.81171104  0.47884448    -0.81500
O1578       O  0.82451226  0.74622609  0.64583200    -0.77200
O1579       O  0.81584844  0.74757286  0.35402148    -0.77300
O1580       O  0.67587751  0.74842694  0.35587504    -0.76900
O1581       O  0.68729449  0.75048261  0.64631945    -0.80400
O1582       O  0.74369505  0.85955761  0.57809542    -0.79800
O1583       O  0.75099547  0.85727165  0.42005109    -0.78100
Eu1584     Eu  0.75376263  0.74784178  0.60892649     2.39800
Eu1585     Eu  0.74826941  0.74929635  0.38929929     2.39600
Eu1586     Eu  0.82805157  0.74796719  0.49972958     2.38400
Eu1587     Eu  0.67468173  0.74883082  0.49934405     2.39900
Eu1588     Eu  0.74958008  0.82332753  0.49977623     2.39800
O1589       O  0.71087965  0.78641709  0.44592159    -0.92600
O1590       O  0.78976149  0.78530280  0.55336876    -0.91500
C1591       C  0.74647899  0.85210833  0.62573644     1.02600
C1592       C  0.74849814  0.85105564  0.37223995     1.01300
C1593       C  0.85964388  0.74661614  0.62759318     1.00700
C1594       C  0.65176220  0.75019875  0.62785836     1.02700
C1595       C  0.64102629  0.74734766  0.37528031     1.01600
C1596       C  0.85163289  0.74595909  0.37192830     1.00500
C1597       C  0.84372396  0.84553070  0.52026972     1.00600
C1598       C  0.65500483  0.84660537  0.47518819     1.03200
H1599       H  0.80509905  0.80356840  0.42588656     0.30500
O1600       O  0.78857034  0.78678830  0.44506881    -1.04700
H1601       H  0.69540922  0.80343511  0.57289140     0.32600
O1602       O  0.71244829  0.78670550  0.55392051    -1.07300
N1603       N  0.49040055  0.95081538  0.50783408    -0.36300
N1604       N  0.50786762  0.50424578  0.43031661    -0.56900
N1605       N  0.49921541  0.56480954  0.50297744    -0.36300
N1606       N  0.99478488  0.50202051  0.60065127    -0.56900
C1607       C  0.50581724  0.92757826  0.47243961     0.27300
C1608       C  0.98492745  0.92775144  0.55079586     0.27300
C1609       C  0.53269329  0.56993111  0.47987081     0.27300
C1610       C  0.00823688  0.56955008  0.54797193     0.27300
C1611       C  0.51672868  0.97385198  0.40371158     0.35900
C1612       C  0.52188585  0.53294299  0.40296743     0.35900
C1613       C  0.96789722  0.97195555  0.61805689     0.35900
C1614       C  0.98173321  0.53602821  0.61818811     0.35900
C1615       C  0.50828753  0.89004576  0.49020549    -0.21600
C1616       C  0.99398138  0.88970148  0.54086829    -0.21600
C1617       C  0.56212284  0.57691965  0.51585767    -0.21600
C1618       C  0.04768735  0.57262287  0.55699031    -0.21600
C1619       C  0.53302038  0.98276053  0.35802162    -0.22700
C1620       C  0.53473445  0.51918529  0.35704953    -0.22700
C1621       C  0.94239698  0.98789119  0.65191296    -0.22700
C1622       C  0.95187983  0.53047287  0.65136721    -0.22700
C1623       C  0.52533448  0.93977171  0.42972176    -0.18000
C1624       C  0.96081422  0.93934163  0.58943640    -0.18000
C1625       C  0.98057774  0.56727484  0.58526785    -0.18000
C1626       C  0.53714085  0.56504588  0.42735734    -0.18000
H1627       H  0.52020289  0.86515972  0.47095246     0.14900
H1628       H  0.98971077  0.86529774  0.56523766     0.14900
H1629       H  0.59252648  0.58117377  0.50973956     0.14900
H1630       H  0.06295480  0.57379068  0.59337412     0.14900
H1631       H  0.54664152  0.96287999  0.33207030     0.13200
H1632       H  0.55053363  0.53468674  0.32915563     0.13200
H1633       H  0.91606840  0.97564427  0.66534081     0.13200
H1634       H  0.93294642  0.55243480  0.66680691     0.13200
H1635       H  0.48423627  0.98023500  0.50568571     0.26400
H1636       H  0.47273736  0.55930814  0.48453585     0.26400
O1637       O  0.00407280  0.93151688  0.85551169    -0.79800
O1638       O  0.99623894  0.92952589  0.14434143    -0.81400
O1639       O  0.55669600  0.88954923  0.02148065    -0.78400
O1640       O  0.93115604  0.89709464  0.98566063    -0.76800
O1641       O  0.88654654  0.94627870  0.98869943    -0.78600
O1642       O  0.60452447  0.93358597  0.02514233    -0.79500
O1643       O  0.99203798  0.88901297  0.07655105    -0.80900
O1644       O  0.00351409  0.88809920  0.92063243    -0.81100
Eu1645     Eu  0.99670736  0.92424461  0.99899403     2.39200
O1646       O  0.95779640  0.96324269  0.05098953    -0.88600
O1647       O  0.53800998  0.95881446  0.94777209    -0.92300
C1648       C  0.00462031  0.89626934  0.87321657     1.02400
C1649       C  0.99403170  0.89501111  0.12433508     1.02300
C1650       C  0.59160502  0.89969783  0.03268338     1.02200
C1651       C  0.89588076  0.91086113  0.98255903     1.00100
H1652       H  0.54844247  0.94607241  0.07851584     0.29800
O1653       O  0.53348692  0.96159092  0.05511858    -1.01000
H1654       H  0.94559982  0.94882607  0.92249917     0.29800
O1655       O  0.96128758  0.96506297  0.94428933    -1.03600
O1656       O  0.99543742  0.56506270  0.15099848    -0.80800
O1657       O  0.00409819  0.57000986  0.85899499    -0.80300
O1658       O  0.60818394  0.00307820  0.08416471    -0.78800
O1659       O  0.88398959  0.00422938  0.07234188    -0.82100
O1660       O  0.89090014  0.49662063  0.91273496    -0.80000
O1661       O  0.61455697  0.49661469  0.92630796    -0.78600
O1662       O  0.55896938  0.60727039  0.02036395    -0.80100
O1663       O  0.93799303  0.61018052  0.98797526    -0.82100
O1664       O  0.60533538  0.55910953  0.02278201    -0.78800
O1665       O  0.89168280  0.56506541  0.97825979    -0.81500
O1666       O  0.56578010  0.00351792  0.14877631    -0.77200
O1667       O  0.57163351  0.49706215  0.85819668    -0.77300
O1668       O  0.93547598  0.49693845  0.85021382    -0.76900
O1669       O  0.92641118  0.99972373  0.14059281    -0.80400
O1670       O  0.99510852  0.60837944  0.08582256    -0.79800
O1671       O  0.00200563  0.61201928  0.92590849    -0.78100
Eu1672     Eu  0.99602519  0.99931094  0.11004104     2.39800
Eu1673     Eu  0.00311578  0.50036380  0.89262440     2.39600
Eu1674     Eu  0.57475513  0.99671105  0.00403581     2.38400
Eu1675     Eu  0.92168542  0.00418411  0.99535771     2.39900
Eu1676     Eu  0.99867900  0.57546819  0.00407375     2.39800
O1677       O  0.96305399  0.53908884  0.94554285    -0.92600
O1678       O  0.53631099  0.53414986  0.05597486    -0.91500
C1679       C  0.99498284  0.60011350  0.13337525     1.02600
C1680       C  0.00339935  0.60482757  0.87823982     1.01300
C1681       C  0.60099222  0.00545506  0.13111479     1.00700
C1682       C  0.89118142  0.00153890  0.12036359     1.02700
C1683       C  0.89985760  0.49490124  0.86576242     1.01600
C1684       C  0.60693646  0.49668061  0.87801356     1.00500
C1685       C  0.59377351  0.59445435  0.02742153     1.00600
C1686       C  0.90375712  0.59947215  0.97522565     1.03200
H1687       H  0.55743191  0.55387130  0.93300341     0.30500
O1688       O  0.54009939  0.53779378  0.95051330    -1.04700
H1689       H  0.94098698  0.55653742  0.07355150     0.32600
O1690       O  0.95837871  0.53971115  0.05513519    -1.07300
N1691       N  0.76217507  0.69916409  0.97494319    -0.36300
N1692       N  0.75688403  0.75599677  0.88970409    -0.56900
N1693       N  0.74378982  0.81150202  0.99802112    -0.36300
N1694       N  0.74460850  0.74487768  0.06362619    -0.56900
C1695       C  0.77101777  0.68030329  0.93213369     0.27300
C1696       C  0.75238032  0.67222631  0.00877625     0.27300
C1697       C  0.73645650  0.81687060  0.94823630     0.27300
C1698       C  0.70902174  0.80892202  0.01915970     0.27300
C1699       C  0.78376697  0.73177900  0.87135673     0.35900
C1700       C  0.76811456  0.79140961  0.87708692     0.35900
C1701       C  0.73862571  0.71054390  0.08386739     0.35900
C1702       C  0.72703244  0.77072112  0.09330831     0.35900
C1703       C  0.76806856  0.64101500  0.93955563    -0.21600
C1704       C  0.75550911  0.63601996  0.98762514    -0.21600
C1705       C  0.69720741  0.81710407  0.93670607    -0.21600
C1706       C  0.67951506  0.81349967  0.98211113    -0.21600
C1707       C  0.80773173  0.75082880  0.83934077    -0.22700
C1708       C  0.79680597  0.78890460  0.84163011    -0.22700
C1709       C  0.72437203  0.71545390  0.13216934    -0.22700
C1710       C  0.71786381  0.75411650  0.13869753    -0.22700
C1711       C  0.79266504  0.69625913  0.89373839    -0.18000
C1712       C  0.73067420  0.67957528  0.05165499    -0.18000
C1713       C  0.70442583  0.79988792  0.07053435    -0.18000
C1714       C  0.76524490  0.82076520  0.91323466    -0.18000
H1715       H  0.77416643  0.61828030  0.91287349     0.14900
H1716       H  0.74792090  0.60907697  0.00465375     0.14900
H1717       H  0.68306240  0.82038474  0.89973234     0.14900
H1718       H  0.64861194  0.81158519  0.98543718     0.14900
H1719       H  0.83432720  0.73988314  0.82360068     0.13200
H1720       H  0.81451083  0.81200062  0.82923830     0.13200
H1721       H  0.71530182  0.69397457  0.15819858     0.13200
H1722       H  0.70097303  0.76692551  0.16852260     0.13200
H1723       H  0.76230592  0.72883131  0.97966189     0.26400
H1724       H  0.77110173  0.80915196  0.01639478     0.26400
C1725       C  0.49240065  0.74982777  0.24757458    -0.02200
C1726       C  0.75215385  0.99848704  0.25627113    -0.02200
C1727       C  0.51090156  0.74827276  0.75298481    -0.02200
C1728       C  0.74657031  0.99856654  0.74753843    -0.02200
C1729       C  0.70820593  0.52011780  0.17810261    -0.12000
C1730       C  0.70977533  0.00350512  0.22689529     0.05000
C1731       C  0.67194392  0.99375892  0.24568418    -0.07300
C1732       C  0.63730462  0.99744084  0.21523550    -0.08000
C1733       C  0.63719336  0.00945978  0.16496408    -0.02600
C1734       C  0.67498961  0.51919861  0.14607991     0.04300
N1735       N  0.67950011  0.53152390  0.09473262     0.66800
H1736       H  0.73244555  0.53443975  0.16262647     0.15700
H1737       H  0.61012524  0.98885146  0.23092399     0.15400
N1738       N  0.66579087  0.98121489  0.29587431     0.74500
O1739       O  0.68411079  0.50654513  0.06077703    -0.39000
O1740       O  0.69839449  0.06222244  0.08670806    -0.38900
O1741       O  0.66225981  0.51772489  0.32644929    -0.39600
O1742       O  0.65537367  0.94709139  0.30216594    -0.39700
C1743       C  0.78646303  0.99100327  0.16732436    -0.12000
C1744       C  0.78945779  0.99728431  0.22031516     0.05000
C1745       C  0.82895842  0.00069354  0.23891956    -0.07300
C1746       C  0.86073815  0.00224896  0.20628076    -0.08000
C1747       C  0.85608011  0.00014770  0.15377188    -0.02600
C1748       C  0.81765857  0.99475496  0.13457582     0.04300
N1749       N  0.80910290  0.99170010  0.08161021     0.66800
H1750       H  0.75985297  0.98148161  0.14961555     0.15700
H1751       H  0.88976804  0.00471013  0.22288527     0.15400
N1752       N  0.83911977  0.99981699  0.29120788     0.74500
O1753       O  0.80046836  0.95932991  0.06392791    -0.39000
O1754       O  0.80254701  0.52340725  0.05840277    -0.38900
O1755       O  0.84679466  0.96732389  0.31079118    -0.39600
O1756       O  0.86021244  0.52088323  0.31221953    -0.39700
C1757       C  0.49618456  0.85945873  0.20968206    -0.12000
C1758       C  0.99464073  0.85841245  0.15608943     0.05000
C1759       C  0.99508360  0.82100636  0.13340803    -0.07300
C1760       C  0.99712907  0.78745133  0.16288154    -0.08000
C1761       C  0.49462317  0.78807503  0.21608640    -0.02600
C1762       C  0.49588200  0.82547029  0.23927223     0.04300
N1763       N  0.49682445  0.82995636  0.29307862     0.66800
H1764       H  0.49674452  0.88701229  0.22869059     0.15700
H1765       H  0.99993681  0.76037218  0.14338068     0.15400
N1766       N  0.98946618  0.81568802  0.08020372     0.74500
O1767       O  0.52887441  0.83701053  0.31481994    -0.39000
O1768       O  0.46606553  0.83933850  0.31524039    -0.38900
O1769       O  0.01566573  0.79881694  0.05554586    -0.39600
O1770       O  0.95504073  0.81623675  0.06251748    -0.39700
C1771       C  0.96705918  0.66470013  0.15282145    -0.12000
C1772       C  0.99301056  0.63479089  0.16773303     0.05000
C1773       C  0.51651334  0.64092529  0.21077360    -0.07300
C1774       C  0.51558096  0.67748665  0.23495477    -0.08000
C1775       C  0.49207011  0.70968877  0.21731927    -0.02600
C1776       C  0.96517057  0.70043368  0.17773861     0.04300
N1777       N  0.93247531  0.72463872  0.16438494     0.66800
H1778       H  0.94658184  0.65985077  0.12155996     0.15700
H1779       H  0.53370476  0.68007357  0.26877512     0.15400
N1780       N  0.54186498  0.61088125  0.23175023     0.74500
O1781       O  0.93165314  0.74085313  0.12162960    -0.39000
O1782       O  0.90046910  0.71655072  0.18331091    -0.38900
O1783       O  0.55762269  0.58601383  0.20376516    -0.39600
O1784       O  0.55092653  0.61070524  0.27840122    -0.39700
C1785       C  0.67610884  0.85449783  0.10857731    -0.12000
C1786       C  0.67085743  0.81656899  0.09580660     0.05000
C1787       C  0.63377459  0.80462485  0.08025317    -0.07300
C1788       C  0.60730891  0.83235174  0.06033594    -0.08000
C1789       C  0.61720133  0.87133265  0.05988284    -0.02600
C1790       C  0.65053046  0.88223921  0.08857438     0.04300
N1791       N  0.66069231  0.92097700  0.09596214     0.66800
H1792       H  0.70402217  0.86322963  0.12419306     0.15700
H1793       H  0.58114811  0.82303283  0.04102485     0.15400
N1794       N  0.62662637  0.76459232  0.07389304     0.74500
O1795       O  0.65616081  0.93462638  0.13951773    -0.39000
O1796       O  0.68753207  0.93361616  0.06978536    -0.38900
O1797       O  0.63208424  0.74192564  0.11077524    -0.39600
O1798       O  0.61970507  0.75110212  0.03035978    -0.39700
C1799       C  0.83721617  0.82999234  0.92627412    -0.12000
C1800       C  0.79892850  0.84484363  0.92871976     0.05000
C1801       C  0.79294354  0.88070224  0.95269152    -0.07300
C1802       C  0.82495592  0.90073059  0.97118399    -0.08000
C1803       C  0.86328091  0.88593896  0.96772184    -0.02600
C1804       C  0.86910734  0.85012533  0.94444436     0.04300
N1805       N  0.90713779  0.83410651  0.93714315     0.66800
H1806       H  0.84301847  0.80196004  0.91134187     0.15700
H1807       H  0.81958473  0.92883561  0.98690689     0.15400
N1808       N  0.75466752  0.89623484  0.96155283     0.74500
O1809       O  0.92335870  0.81407627  0.97180305    -0.39000
O1810       O  0.91993227  0.83194030  0.89302061    -0.38900
O1811       O  0.74547588  0.90487910  0.00604206    -0.39600
O1812       O  0.72883798  0.89750627  0.92658217    -0.39700
C1813       C  0.83873174  0.64588938  0.87522883    -0.12000
C1814       C  0.83278429  0.68196312  0.89593707     0.05000
C1815       C  0.85551121  0.69305991  0.93856126    -0.07300
C1816       C  0.87681154  0.66555202  0.96664213    -0.08000
C1817       C  0.87824890  0.62769245  0.94962135    -0.02600
C1818       C  0.86079887  0.61863855  0.90230918     0.04300
N1819       N  0.86638654  0.58216520  0.88006447     0.66800
H1820       H  0.82221641  0.63737579  0.84161561     0.15700
H1821       H  0.89325455  0.67396680  0.00032682     0.15400
N1822       N  0.85930164  0.73249815  0.95085082     0.74500
O1823       O  0.83790523  0.56021023  0.87716733    -0.39000
O1824       O  0.89427885  0.57754691  0.85069179    -0.38900
O1825       O  0.83741153  0.74852141  0.98241589    -0.39600
O1826       O  0.88785340  0.74999491  0.93426871    -0.39700
C1827       C  0.63558089  0.64324529  0.99685231    -0.12000
C1828       C  0.62286751  0.62278519  0.03774220     0.05000
C1829       C  0.64025748  0.62763338  0.08591686    -0.07300
C1830       C  0.67566567  0.64595422  0.09029677    -0.08000
C1831       C  0.69065442  0.66450947  0.04849499    -0.02600
C1832       C  0.66805397  0.66570986  0.00209464     0.04300
N1833       N  0.67836829  0.68753007  0.95883035     0.66800
H1834       H  0.62057484  0.64120259  0.96025097     0.15700
H1835       H  0.69175105  0.64390725  0.12586857     0.15400
N1836       N  0.62110068  0.61678560  0.13058587     0.74500
O1837       O  0.68590211  0.66984748  0.91844074    -0.39000
O1838       O  0.66725522  0.72226167  0.95576409    -0.38900
O1839       O  0.63900502  0.59605594  0.16326164    -0.39600
O1840       O  0.59293321  0.63779061  0.14427019    -0.39700
C1841       C  0.81771298  0.02221552  0.76847573    -0.12000
C1842       C  0.78797434  0.49881104  0.78068068     0.05000
C1843       C  0.79583555  0.47352120  0.82257110    -0.07300
C1844       C  0.83306493  0.47091104  0.84655710    -0.08000
C1845       C  0.86504181  0.49126657  0.82959980    -0.02600
C1846       C  0.85847365  0.51477298  0.78645948     0.04300
N1847       N  0.89004516  0.53288984  0.76230637     0.66800
H1848       H  0.81386639  0.04555094  0.74241270     0.15700
H1849       H  0.83685642  0.45275353  0.87974809     0.15400
N1850       N  0.76655373  0.44970565  0.84162388     0.74500
O1851       O  0.91928437  0.01596127  0.75774871    -0.39000
O1852       O  0.88433523  0.56426932  0.73897539    -0.38900
O1853       O  0.76531114  0.91507674  0.83434526    -0.39600
O1854       O  0.74692928  0.46195613  0.87804890    -0.39700
C1855       C  0.67074506  0.52446913  0.85183879    -0.12000
C1856       C  0.64182004  0.49699621  0.84408952     0.05000
C1857       C  0.64699598  0.96883673  0.80704425    -0.07300
C1858       C  0.68169336  0.96848694  0.77970967    -0.08000
C1859       C  0.71182589  0.49735133  0.78377477    -0.02600
C1860       C  0.70495546  0.52506030  0.82299995     0.04300
N1861       N  0.73293656  0.55339262  0.83598145     0.66800
H1862       H  0.66689618  0.54591524  0.88111530     0.15700
H1863       H  0.68565656  0.94426268  0.75493238     0.15400
N1864       N  0.62010004  0.93882141  0.79818923     0.74500
O1865       O  0.75819410  0.54546789  0.87024779    -0.39000
O1866       O  0.72175819  0.08876155  0.82837772    -0.38900
O1867       O  0.60053896  0.43906558  0.75984371    -0.39600
O1868       O  0.62619084  0.90675207  0.81959421    -0.39700
C1869       C  0.98704589  0.70799064  0.82783293    -0.12000
C1870       C  0.51560732  0.71169167  0.78959932     0.05000
C1871       C  0.54409440  0.68041609  0.78776290    -0.07300
C1872       C  0.53749920  0.64471753  0.81179100    -0.08000
C1873       C  0.00554657  0.64026936  0.84536018    -0.02600
C1874       C  0.98184174  0.67336975  0.85382416     0.04300
N1875       N  0.94957076  0.67194030  0.88560654     0.66800
H1876       H  0.96650384  0.73155471  0.83398269     0.15700
H1877       H  0.55907956  0.62162046  0.80917710     0.15400
N1878       N  0.58278582  0.68552311  0.77108492     0.74500
O1879       O  0.95369227  0.68375882  0.93053340    -0.39000
O1880       O  0.91635286  0.67385190  0.86424731    -0.38900
O1881       O  0.60606613  0.70332737  0.79977602    -0.39600
O1882       O  0.59692088  0.66148468  0.74054600    -0.39700
C1883       C  0.53502191  0.83239329  0.85041369    -0.12000
C1884       C  0.00699609  0.86132571  0.83887613     0.05000
C1885       C  0.97754321  0.85200005  0.80279168    -0.07300
C1886       C  0.97792137  0.81540460  0.77871109    -0.08000
C1887       C  0.50792828  0.78667684  0.78705780    -0.02600
C1888       C  0.53580257  0.79599525  0.82634773     0.04300
N1889       N  0.56611710  0.76944845  0.84225377     0.66800
H1890       H  0.55677885  0.83790694  0.87990744     0.15700
H1891       H  0.95412927  0.81042632  0.75233136     0.15400
N1892       N  0.94532391  0.87813922  0.79246925     0.74500
O1893       O  0.60079316  0.77733605  0.83311397    -0.39000
O1894       O  0.56005605  0.74723900  0.87871761    -0.38900
O1895       O  0.95090785  0.91326012  0.78457155    -0.39600
O1896       O  0.91137842  0.86556440  0.78701729    -0.39700
C1897       C  0.93974926  0.72146386  0.73003125    -0.12000
C1898       C  0.97146977  0.74544367  0.71822732     0.05000
C1899       C  0.96447481  0.76865953  0.67386867    -0.07300
C1900       C  0.92791395  0.76927353  0.64727861    -0.08000
C1901       C  0.89623247  0.74725423  0.66183953    -0.02600
C1902       C  0.90305763  0.72263503  0.70363009     0.04300
N1903       N  0.87503599  0.69479873  0.71595540     0.66800
H1904       H  0.94273066  0.69932363  0.75804312     0.15700
H1905       H  0.92453803  0.78717583  0.61383688     0.15400
N1906       N  0.99458793  0.79083941  0.65324342     0.74500
O1907       O  0.87448854  0.66338300  0.69218205    -0.39000
O1908       O  0.85809744  0.69737387  0.75743447    -0.38900
O1909       O  0.00857610  0.78108679  0.61142653    -0.39600
O1910       O  0.00107319  0.82387728  0.67043193    -0.39700
C1911       C  0.57485337  0.77964565  0.72247915    -0.12000
C1912       C  0.54741985  0.74980507  0.71785861     0.05000
C1913       C  0.55521848  0.72204295  0.67928182    -0.07300
C1914       C  0.59026856  0.72196479  0.65338405    -0.08000
C1915       C  0.61833894  0.74960142  0.66221118    -0.02600
C1916       C  0.60995413  0.77923234  0.69646023     0.04300
N1917       N  0.63542666  0.81069772  0.70286831     0.66800
H1918       H  0.56952310  0.80467522  0.74530542     0.15700
H1919       H  0.59511473  0.70023885  0.62466764     0.15400
N1920       N  0.52730024  0.69508163  0.66228427     0.74500
O1921       O  0.62833608  0.84124977  0.67824146    -0.39000
O1922       O  0.65835798  0.81137980  0.74104219    -0.38900
O1923       O  0.52869974  0.66192118  0.68144477    -0.39600
O1924       O  0.51396708  0.69884657  0.61745606    -0.39700
C1925       C  0.77210711  0.57655158  0.64428502    -0.12000
C1926       C  0.74836296  0.60837697  0.65752341     0.05000
C1927       C  0.72047645  0.60209076  0.69421237    -0.07300
C1928       C  0.71852005  0.56598318  0.71852931    -0.08000
C1929       C  0.74563769  0.53511550  0.71062837    -0.02600
C1930       C  0.77057453  0.54046436  0.66868946     0.04300
N1931       N  0.79508300  0.50997861  0.65002455     0.66800
H1932       H  0.79202649  0.57949389  0.61362727     0.15700
H1933       H  0.69465548  0.56282400  0.74333043     0.15400
N1934       N  0.69185274  0.63111753  0.70485424     0.74500
O1935       O  0.78233061  0.48988308  0.61372473    -0.39000
O1936       O  0.83145830  0.51184651  0.65671561    -0.38900
O1937       O  0.65847530  0.62923168  0.68400436    -0.39600
O1938       O  0.69670260  0.65233225  0.74312747    -0.39700
C1939       C  0.71904585  0.91870248  0.64618606    -0.12000
C1940       C  0.74464152  0.88751850  0.65922963     0.05000
C1941       C  0.77243065  0.89395096  0.69797564    -0.07300
C1942       C  0.77457468  0.92989162  0.72231086    -0.08000
C1943       C  0.74709938  0.96065515  0.71319551    -0.02600
C1944       C  0.71953443  0.95436464  0.67245294     0.04300
N1945       N  0.69318771  0.98448043  0.65506019     0.66800
H1946       H  0.69832650  0.91546426  0.61483652     0.15700
H1947       H  0.79881247  0.93253694  0.74851485     0.15400
N1948       N  0.79950779  0.86420865  0.71304849     0.74500
O1949       O  0.69786018  0.99980218  0.61250000    -0.39000
O1950       O  0.66219305  0.99161071  0.67791694    -0.38900
O1951       O  0.83213412  0.86164841  0.69281269    -0.39600
O1952       O  0.79409430  0.84609366  0.75329475    -0.39700
C1953       C  0.91676776  0.56558314  0.53914763    -0.12000
C1954       C  0.94215096  0.58450799  0.57300018     0.05000
C1955       C  0.93190260  0.62072432  0.59186995    -0.07300
C1956       C  0.90048777  0.64038634  0.56940919    -0.08000
C1957       C  0.87844610  0.62408164  0.53004144    -0.02600
C1958       C  0.88481585  0.58538068  0.51703044     0.04300
N1959       N  0.86107694  0.56666879  0.47980517     0.66800
H1960       H  0.92347036  0.53640468  0.52728972     0.15700
H1961       H  0.89279460  0.66883775  0.58314424     0.15400
N1962       N  0.95223636  0.63770467  0.63401099     0.74500
O1963       O  0.87138412  0.56626971  0.43440836    -0.39000
O1964       O  0.83707881  0.54243922  0.49400771    -0.38900
O1965       O  0.94881446  0.67337917  0.64086223    -0.39600
O1966       O  0.96587611  0.61701721  0.66984402    -0.39700
C1967       C  0.59365134  0.64786435  0.42514750    -0.12000
C1968       C  0.62893370  0.62983471  0.44146860     0.05000
C1969       C  0.63610720  0.59110718  0.42754737    -0.07300
C1970       C  0.60541118  0.56983728  0.40776505    -0.08000
C1971       C  0.56800066  0.58657069  0.40461607    -0.02600
C1972       C  0.56313567  0.62646225  0.40596524     0.04300
N1973       N  0.52510178  0.64386174  0.39962361     0.66800
H1974       H  0.58867762  0.67826213  0.43038753     0.15700
H1975       H  0.60937860  0.53902032  0.40404644     0.15400
N1976       N  0.67256735  0.57182261  0.43793309     0.74500
O1977       O  0.51021673  0.66153166  0.43623970    -0.39000
O1978       O  0.50369350  0.63494597  0.36202233    -0.38900
O1979       O  0.67678338  0.55112598  0.47699120    -0.39600
O1980       O  0.69564537  0.56698960  0.40228975    -0.39700
C1981       C  0.57613770  0.89610917  0.39677614    -0.12000
C1982       C  0.56577921  0.92543546  0.42967184     0.05000
C1983       C  0.59063173  0.93432696  0.47131715    -0.07300
C1984       C  0.61984104  0.90811807  0.48648997    -0.08000
C1985       C  0.62690204  0.87560537  0.45693744    -0.02600
C1986       C  0.60838337  0.87244679  0.40881186     0.04300
N1987       N  0.62430534  0.84848200  0.37042776     0.63000
H1988       H  0.55907465  0.89170357  0.36234491     0.15700
H1989       H  0.63679667  0.91301071  0.52105725     0.15400
N1990       N  0.58588904  0.96964278  0.49819800     0.74500
O1991       O  0.60199306  0.82733549  0.34506509    -0.39000
O1992       O  0.65581637  0.85784471  0.35133670    -0.38900
O1993       O  0.57028308  0.97039130  0.54074208    -0.39600
O1994       O  0.60218794  0.99910949  0.48240478    -0.39700
C1995       C  0.90108872  0.93464615  0.53777147    -0.12000
C1996       C  0.92132928  0.92539170  0.58323828     0.05000
C1997       C  0.91007521  0.89448785  0.61228512    -0.07300
C1998       C  0.88474894  0.86812956  0.59069656    -0.08000
C1999       C  0.86948810  0.87400114  0.54132433    -0.02600
C2000       C  0.87501232  0.90903125  0.51653911     0.04300
N2001       N  0.85679637  0.91764087  0.46838887     0.66800
H2002       H  0.90876784  0.95965132  0.51620591     0.15700
H2003       H  0.87691323  0.84320342  0.61225775     0.15400
N2004       N  0.92185736  0.89172460  0.66440923     0.74500
O2005       O  0.82570211  0.93769656  0.46660631    -0.39000
O2006       O  0.87628212  0.91391215  0.42895158    -0.38900
O2007       O  0.89833423  0.90394902  0.69669599    -0.39600
O2008       O  0.95754522  0.88921074  0.67662008    -0.39700
C2009       C  0.53141178  0.75292311  0.33460912    -0.12000
C2010       C  0.53146940  0.75020924  0.28151212     0.05000
C2011       C  0.56918136  0.74791994  0.25966907    -0.07300
C2012       C  0.60386152  0.74577342  0.29006913    -0.08000
C2013       C  0.60336314  0.74743552  0.34301609    -0.02600
C2014       C  0.56580911  0.75178478  0.36496548     0.04300
N2015       N  0.56141234  0.75877845  0.41794441     0.66800
H2016       H  0.50456795  0.75838140  0.35369006     0.15700
H2017       H  0.63153703  0.74366592  0.27169228     0.15400
N2018       N  0.57321151  0.74843439  0.20610191     0.74500
O2019       O  0.56304227  0.79281076  0.43406218    -0.39000
O2020       O  0.54487121  0.73426759  0.44432072    -0.38900
O2021       O  0.58266724  0.77930071  0.18536758    -0.39600
O2022       O  0.57883840  0.71713439  0.18311871    -0.39700
C2023       C  0.88594557  0.77160800  0.29746116    -0.12000
C2024       C  0.88462017  0.74467325  0.33637443     0.05000
C2025       C  0.91662045  0.71892170  0.34356484    -0.07300
C2026       C  0.94938879  0.72146814  0.31352176    -0.08000
C2027       C  0.95330156  0.75063121  0.27695799    -0.02600
C2028       C  0.91885285  0.77501962  0.26733129     0.04300
N2029       N  0.91448319  0.80247142  0.22672819     0.66800
H2030       H  0.86114096  0.79099130  0.29072811     0.15700
H2031       H  0.97292248  0.70070344  0.32008792     0.15400
N2032       N  0.91611157  0.68923644  0.38082004     0.74500
O2033       O  0.91283500  0.83765289  0.23803217    -0.39000
O2034       O  0.89625183  0.79271722  0.18686966    -0.38900
O2035       O  0.90852366  0.65545362  0.36720825    -0.39600
O2036       O  0.93149599  0.69481424  0.42407316    -0.39700
C2037       C  0.75999029  0.88727377  0.29046162    -0.12000
C2038       C  0.74744554  0.88700122  0.34040901     0.05000
C2039       C  0.73434666  0.92254978  0.36070099    -0.07300
C2040       C  0.73684570  0.95649074  0.33298527    -0.08000
C2041       C  0.75225829  0.95851561  0.28487197    -0.02600
C2042       C  0.76106661  0.92188674  0.26218685     0.04300
N2043       N  0.76748668  0.91820774  0.20939179     0.66800
H2044       H  0.76814250  0.86035655  0.27261618     0.15700
H2045       H  0.72331525  0.98173374  0.34844111     0.15400
N2046       N  0.71510908  0.92487824  0.40789821     0.74500
O2047       O  0.80004501  0.90572738  0.19484244    -0.39000
O2048       O  0.73846688  0.91785095  0.17902263    -0.38900
O2049       O  0.73478922  0.93142108  0.44792748    -0.39600
O2050       O  0.67895058  0.93183746  0.40731658    -0.39700
C2051       C  0.77333641  0.57774534  0.36352379    -0.12000
C2052       C  0.76101289  0.61158043  0.33798088     0.05000
C2053       C  0.75134404  0.60792844  0.28637082    -0.07300
C2054       C  0.75223573  0.57140107  0.26315302    -0.08000
C2055       C  0.75859452  0.53587487  0.28970540    -0.02600
C2056       C  0.77128104  0.54068912  0.34243330     0.04300
N2057       N  0.78165443  0.51060327  0.37815160     0.66800
H2058       H  0.78330522  0.57945231  0.40276755     0.15700
H2059       H  0.74697874  0.57173121  0.22305370     0.15400
N2060       N  0.73994026  0.64065865  0.25643826     0.74500
O2061       O  0.81716174  0.50314385  0.38742504    -0.39000
O2062       O  0.75941083  0.50657202  0.41480741    -0.38900
O2063       O  0.76462897  0.65559938  0.22874593    -0.39600
O2064       O  0.70421763  0.64748403  0.24721097    -0.39700
loop_ 
_geom_bond_atom_site_label_1 
_geom_bond_atom_site_label_2 
_geom_bond_distance 
_geom_bond_site_symmetry_2 
_ccdc_geom_bond_type 
O1           C12   1.305       .  A
O1          Eu37   2.546       .  S
O2           C13   1.313       .  A
O2          Eu36   2.578       .  S
O3           C14   1.283       .  A
O3           Eu9   2.431       .  S
O4           C15   1.285       .  A
O4           Eu9   2.438       .  S
O5           C15   1.287       .  A
O5          Eu39   2.432       .  S
O6           C14   1.287       .  A
O6          Eu38   2.428       .  S
O7           C13   1.286       .  A
O7           Eu9   2.426       .  S
O8           C12   1.285       .  A
O8           Eu9   2.417       .  S
Eu9          O19   2.335       .  S
Eu9          O11   2.349       .  S
Eu9          O10   2.357       .  S
Eu9          O17   2.354       .  S
O10         Eu39   2.351       .  S
O10         Eu36   2.399       .  S
O11         Eu37   2.395       .  S
O11         Eu38   2.351       .  S
C12         C504   1.513       .  S
C13         C378   1.510       .  S
C14         C409   1.458       .  S
C15         C420   1.475       .  S
H16          O17   0.958       .  S
O17         Eu38   2.351       .  S
O17         Eu36   2.370       .  S
H18          O19   0.969       .  S
O19         Eu37   2.343       .  S
O19         Eu39   2.343       .  S
O20          C43   1.314       .  A
O20         Eu36   2.580       .  S
O21          C44   1.305       .  A
O21         Eu37   2.542       .  S
O22          C45   1.290       .  A
O22         Eu38   2.449       .  S
O23          C46   1.291       .  A
O23         Eu39   2.446       .  S
O24          C47   1.280       .  A
O24         Eu39   2.398       .  S
O25          C48   1.289       .  A
O25         Eu38   2.444       .  S
O26          C49   1.275       .  A
O26         Eu40   2.381       .  S
O27          C50   1.276       .  A
O27         Eu40   2.390       .  S
O28          C49   1.288       .  A
O28         Eu38   2.453       .  S
O29          C50   1.289       .  A
O29         Eu39   2.463       .  S
O30          C45   1.317       .  A
O30         Eu36   2.598       .  S
O31          C48   1.306       .  A
O31         Eu37   2.536       .  S
O32          C47   1.322       .  A
O32         Eu37   2.622       .  S
O33          C46   1.302       .  A
O33         Eu36   2.517       .  S
O34          C43   1.285       .  A
O34         Eu40   2.432       .  S
O35          C44   1.282       .  A
O35         Eu40   2.420       .  S
Eu36         O54   2.393       .  S
Eu36         O42   2.364       .  S
Eu37         O41   2.366       .  S
Eu37         O52   2.400       .  S
Eu38         O52   2.357       .  S
Eu38         O42   2.337       .  S
Eu39         O41   2.338       .  S
Eu39         O54   2.337       .  S
Eu40         O41   2.328       .  S
Eu40         O52   2.352       .  S
Eu40         O54   2.346       .  S
Eu40         O42   2.336       .  S
C43         C392   1.513       .  S
C44         C490   1.508       .  S
C45         C353   1.528       .  S
C46         C367   1.489       .  S
C47         C465   1.531       .  S
C48         C476   1.496       .  S
C49         C451   1.446       .  S
C50         C437   1.452       .  S
H51          O52   0.981       .  S
H53          O54   0.968       .  S
N55          H87   1.042       .  S
N55          C59   1.349   1_655  A
N55        C1092   1.348       .  A
N56          C64   1.343       .  A
N56         C579   1.338   1_545  A
N57          H88   1.043   1_455  S
N57          C61   1.338       .  A
N57        C1094   1.350       .  A
N58          C66   1.343   1_565  A
N58         C581   1.342       .  A
C59          C67   1.389       .  A
C59          C75   1.404       .  A
C60        N1087   1.349       .  A
C60          C76   1.389       .  A
C60          C68   1.381       .  A
C61          C69   1.393       .  A
C61          C78   1.411       .  A
C62        N1089   1.350       .  A
C62          C77   1.393       .  A
C62          C70   1.378       .  A
C63         N572   1.337       .  A
C63          C75   1.393       .  A
C63          C71   1.386       .  A
C64          C78   1.397       .  A
C64          C72   1.385       .  A
C65         N574   1.342       .  A
C65          C73   1.379       .  A
C65          C76   1.386       .  A
C66          C74   1.386       .  A
C66          C77   1.392       .  A
C67        C1100   1.369   1_455  A
C67          H79   1.083       .  S
C68        C1099   1.370       .  A
C68          H80   1.083       .  S
C69        C1102   1.379       .  A
C69          H81   1.078       .  S
C70        C1101   1.378       .  A
C70          H82   1.082       .  S
C71         C588   1.373       .  A
C71          H83   1.082       .  S
C72         C587   1.373   1_545  A
C72          H84   1.082       .  S
C73         C590   1.365       .  A
C73          H85   1.082       .  S
C74         C589   1.366   1_545  A
C74          H86   1.080       .  S
C75         C434   1.467       .  S
C76         C448   1.458       .  S
C77         C406   1.468       .  S
C78         C423   1.464       .  S
O89         C100   1.312       .  A
O89        Eu641   2.576       .  S
O90         C101   1.316       .  A
O90        Eu124   2.592       .  S
O91         C102   1.287       .  A
O91       Eu1129   2.434   1_454  S
O92         C103   1.296       .  A
O92         Eu97   2.494       .  S
O93         C103   1.276       .  A
O93        Eu127   2.373       .  S
O94         C102   1.292       .  A
O94        Eu126   2.467       .  S
O95         C101   1.281       .  A
O95         Eu97   2.406   1_554  S
O96         C100   1.287       .  A
O96         Eu97   2.435       .  S
Eu97       O1123   2.436   1_556  S
Eu97        O107   2.319       .  S
Eu97         O98   2.349   1_556  S
Eu97       O1131   2.374       .  S
Eu97       O1137   2.353   1_556  S
O98        Eu127   2.351   1_554  S
O98        Eu124   2.388       .  S
O99        Eu126   2.351   1_556  S
O99       Eu1129   2.372   1_455  S
O99       Eu1673   2.384       .  S
C100        C336   1.515       .  S
C101        C210   1.527       .  S
C102        C241   1.478       .  S
C103        C255   1.481       .  S
H104        O105   0.948       .  S
O105       Eu126   2.358       .  S
O105      Eu1129   2.352   1_454  S
O105      Eu1156   2.345   1_455  S
H106        O107   0.969       .  S
O107       Eu127   2.356       .  S
O107       Eu641   2.375       .  S
O108        C131   1.307       .  A
O108       Eu640   2.555   1_545  S
O109        C132   1.316       .  A
O109       Eu125   2.592       .  S
O110        C133   1.276       .  A
O110       Eu126   2.384       .  S
O111        C134   1.289       .  A
O111       Eu127   2.453   1_554  S
O112        C135   1.288       .  A
O112       Eu643   2.434   1_565  S
O113        C136   1.294       .  A
O113       Eu642   2.480   1_556  S
O114        C137   1.275       .  A
O114      Eu1160   2.381   1_455  S
O115        C138   1.280       .  A
O115       Eu128   2.410   1_556  S
O116        C137   1.289       .  A
O116       Eu642   2.458   1_545  S
O117        C138   1.284       .  A
O117       Eu643   2.430       .  S
O118        C133   1.317       .  A
O118      Eu1156   2.597   1_455  S
O119        C136   1.307       .  A
O119      Eu1157   2.548   1_565  S
O120        C135   1.308       .  A
O120       Eu125   2.552   1_565  S
O121        C134   1.308       .  A
O121       Eu124   2.546       .  S
O122        C131   1.292       .  A
O122       Eu128   2.462       .  S
O123        C132   1.286       .  A
O123       Eu128   2.432   1_556  S
Eu124       O624   2.546       .  S
Eu124      O1150   2.595       .  S
Eu124      O1137   2.348       .  S
Eu124       O658   2.400       .  S
Eu124      O1678   2.368       .  S
Eu125       O605   2.583   1_545  S
Eu125      O1151   2.547   1_545  S
Eu125       O129   2.391       .  S
Eu125      O1647   2.385   1_545  S
Eu125       O623   2.370   1_545  S
Eu125      O1172   2.382       .  S
Eu126       O629   2.485   1_554  S
Eu126       O632   2.465       .  S
Eu126       O656   2.343   1_554  S
Eu126       O646   2.346       .  S
Eu127       O628   2.444       .  S
Eu127       O633   2.419       .  S
Eu127       O645   2.339       .  S
Eu127       O658   2.343   1_556  S
Eu128      O1146   2.380       .  S
Eu128       O129   2.340   1_554  S
Eu128       O142   2.349       .  S
Eu128      O1172   2.376   1_554  S
Eu128      O1162   2.328       .  S
O129       Eu643   2.338       .  S
O130      Eu1672   2.368   1_445  S
O130       Eu642   2.346   1_545  S
O130      Eu1160   2.328   1_455  S
C131        C224   1.515       .  S
C132        C325   1.517       .  S
C133        C185   1.517       .  S
C134        C199   1.521       .  S
C135        C297   1.512       .  S
C136        C308   1.517       .  S
C137        C280   1.441       .  S
C138        C269   1.458       .  S
H139        O140   0.962       .  S
O140      Eu1157   2.386       .  S
O140       Eu642   2.338   1_546  S
O140      Eu1160   2.376   1_456  S
H141        O142   0.967       .  S
O142       Eu640   2.402   1_545  S
O142       Eu643   2.349   1_554  S
N143        H175   1.041       .  S
N143        C148   1.352   1_556  A
N143        C147   1.347       .  A
N144        C151   1.339       .  A
N144        C152   1.347       .  A
N145        H176   1.046   1_556  S
N145        C150   1.341   1_556  A
N145        C149   1.344       .  A
N146        C153   1.334       .  A
N146        C154   1.339       .  A
C147        C155   1.388       .  A
C147        C163   1.400       .  A
C148        C164   1.399       .  A
C148        C156   1.383   1_554  A
C149        C157   1.375       .  A
C149        C166   1.386       .  A
C150        C165   1.408       .  A
C150        C158   1.394   1_554  A
C151        C163   1.395       .  A
C151        C159   1.382       .  A
C152        C166   1.404       .  A
C152        C160   1.385       .  A
C153        C161   1.392       .  A
C153        C164   1.402       .  A
C154        C162   1.381       .  A
C154        C165   1.389       .  A
C155        C156   1.369       .  A
C155        H167   1.080       .  S
C156        H168   1.083       .  S
C157        C158   1.372       .  A
C157        H169   1.083       .  S
C158        H170   1.074       .  S
C159        C160   1.372       .  A
C159        H171   1.078       .  S
C160        H172   1.079       .  S
C161        C162   1.371       .  A
C161        H173   1.076       .  S
C162        H174   1.083       .  S
C163        C266   1.459       .  S
C164        C283   1.485       .  S
C165        C238   1.460       .  S
C166        C252   1.493       .  S
C177        C213   1.576       .  S
C177        C227   1.608       .  S
C177        C462   1.594   1_655  S
C177       C1511   1.587       .  S
C178        C182   1.634       .  S
C178        C196   1.618       .  S
C178        C493   1.585       .  S
C178       C1023   1.616       .  S
C179        C322   1.600       .  S
C179        C339   1.612       .  S
C179        C364   1.589       .  S
C179       C1382   1.620   1_455  S
C180        C395   1.599       .  S
C180        C810   1.602       .  S
C180        C827   1.613       .  S
C180        C897   1.605       .  S
C181        C186   1.406       .  A
C181        C698   1.417       .  A
C181        H188   1.075       .  S
C182        C183   1.458       .  A
C182        C697   1.416       .  A
C183        C184   1.420       .  A
C183        N190   1.421       .  S
C184        C185   1.392       .  A
C184        H189   1.084       .  S
C185        C702   1.427       .  A
C186        C701   1.430       .  A
C186        N187   1.440       .  S
N187        O191   1.260       .  A
N187        O708   1.260       .  A
N190        O194   1.263       .  A
N190        O709   1.262       .  A
O192        N703   1.259       .  A
O193        N706   1.263       .  A
C195        C196   1.417       .  A
C195        C200   1.408       .  A
C195        H202   1.076       .  S
C196        C197   1.438       .  A
C197        C198   1.417       .  A
C197        N204   1.417       .  S
C198        C199   1.396       .  A
C198        H203   1.084       .  S
C199        C200   1.418       .  A
C200        N201   1.425       .  S
N201        O205   1.260       .  A
N201        O722   1.262       .  A
N204        O724   1.264       .  A
N204        O207   1.263       .  A
O206        N717   1.262   1_545  A
O208        N720   1.264       .  A
C209        C214   1.418       .  A
C209       C1242   1.400       .  A
C209        H216   1.083   1_655  S
C210        C211   1.433       .  A
C210       C1241   1.401       .  A
C211        C212   1.403       .  A
C211        N218   1.425       .  S
C212       C1245   1.396       .  A
C212        H217   1.078       .  S
C213        C214   1.439       .  A
C213       C1244   1.398       .  A
C214        N215   1.428   1_655  S
N215        O219   1.257       .  A
N215        O220   1.261   1_455  A
N218        O222   1.258       .  A
N218        O221   1.261       .  A
C223        C224   1.403       .  A
C223        C228   1.413       .  A
C223        H230   1.085       .  S
C224       C1257   1.410       .  A
C225        C226   1.416       .  A
C225       C1256   1.410   1_455  A
C225        N232   1.430       .  S
C226        C227   1.431   1_455  A
C226        H231   1.079       .  S
C227       C1260   1.432       .  A
C228       C1259   1.433       .  A
C228        N229   1.424       .  S
N229        O233   1.263       .  A
N229        O234   1.263       .  A
N232        O236   1.261       .  A
N232        O235   1.262       .  A
C237        C238   1.380       .  A
C237        C242   1.384       .  A
C237        H244   1.084       .  S
C238        C239   1.402       .  A
C239        C240   1.400       .  A
C239        N246   1.431       .  S
C240        C241   1.409       .  A
C240        H245   1.079       .  S
C241        C242   1.414       .  A
C242        N243   1.415       .  S
N243        O247   1.259       .  A
N243        O248   1.260       .  A
N246        O250   1.260       .  A
N246        O249   1.261       .  A
C251        C252   1.403       .  A
C251        C256   1.388       .  A
C251        H258   1.068       .  S
C252        C253   1.413       .  A
C253        C254   1.398       .  A
C253        N260   1.438       .  S
C254        C255   1.411       .  A
C254        H259   1.077       .  S
C255        C256   1.401       .  A
C256        N257   1.425       .  S
N257        O261   1.259       .  A
N257        O262   1.261       .  A
N260        O264   1.262       .  A
N260        O263   1.262   1_556  A
C265        C266   1.384       .  A
C265        C270   1.386       .  A
C265        H272   1.085       .  S
C266        C267   1.411       .  A
C267        C268   1.393       .  A
C267        N274   1.418       .  S
C268        C269   1.394       .  A
C268        H273   1.084       .  S
C269        C270   1.409       .  A
C270        N271   1.410       .  S
N271        O275   1.260       .  A
N271        O276   1.260       .  A
N274        O278   1.260       .  A
N274        O277   1.262       .  A
C279        C280   1.385   1_556  A
C279        C284   1.384       .  A
C279        H286   1.085       .  S
C280        C281   1.406       .  A
C281        C282   1.397       .  A
C281        N288   1.440       .  S
C282        C283   1.400       .  A
C282        H287   1.078       .  S
C283        C284   1.429   1_554  A
C284        N285   1.433       .  S
N285        O289   1.262       .  A
N285        O290   1.261       .  A
N288        O292   1.262       .  A
N288        O291   1.263       .  A
C293        C810   1.424       .  A
C293        C814   1.417       .  A
C293        H300   1.069       .  S
C294        C295   1.428       .  A
C294        C809   1.423   1_565  A
C294        C696   1.600       .  S
C295        C296   1.411       .  A
C295        N302   1.426       .  S
C296        C297   1.409       .  A
C296        H301   1.084       .  S
C297        C298   1.410   1_565  A
C298        C809   1.414       .  A
C298        N299   1.437       .  S
N299        O819   1.261       .  A
N299        O304   1.263       .  A
N302        O306   1.261       .  A
N302        O821   1.262       .  A
O303        N815   1.261       .  A
O305        N818   1.262       .  A
C307        C308   1.408   1_545  A
C307        C312   1.422       .  A
C307        H314   1.084       .  S
C308        C825   1.408       .  A
C309        C310   1.416       .  A
C309        C824   1.409       .  A
C309        N316   1.429       .  S
C310        C827   1.428       .  A
C310        H315   1.076       .  S
C311        C312   1.437   1_565  A
C311        C826   1.428       .  A
C311        C696   1.611       .  S
C312        N313   1.432       .  S
N313        O317   1.261       .  A
N313        O834   1.262       .  A
N316        O320   1.262       .  A
N316        O835   1.262       .  A
O318        N829   1.262       .  A
O319        N832   1.262       .  A
C321        C326   1.406       .  A
C321       C1354   1.404       .  A
C321        H328   1.084       .  S
C322        C323   1.446       .  A
C322       C1353   1.404   1_455  A
C323        C324   1.424       .  A
C323        N330   1.432       .  S
C324       C1357   1.400       .  A
C324        H329   1.084       .  S
C325        C326   1.417       .  A
C325       C1356   1.400       .  A
C326        N327   1.416       .  S
N327        O331   1.262       .  A
N327        O332   1.259       .  A
N330        O334   1.261       .  A
N330        O333   1.261       .  A
C335        C340   1.416       .  A
C335       C1368   1.407       .  A
C335        H342   1.084       .  S
C336        C337   1.412       .  A
C336       C1367   1.406       .  A
C337        C338   1.422       .  A
C337        N344   1.435       .  S
C338       C1371   1.428       .  A
C338        H343   1.076       .  S
C339        C340   1.434       .  A
C339       C1370   1.428   1_455  A
C340        N341   1.428       .  S
N341        O345   1.262       .  A
N341        O346   1.262       .  A
N344        O348   1.262       .  A
N344        O347   1.262       .  A
C349        C350   1.434       .  A
C349        C354   1.421       .  A
C349        H356   1.069       .  S
C350        C351   1.435       .  A
C350       C1211   1.621       .  S
C351        C352   1.422       .  A
C351        N358   1.431       .  S
C352        C353   1.414       .  A
C352        H357   1.083       .  S
C353        C354   1.408       .  A
C354        N355   1.430       .  S
N355        O359   1.262       .  A
N355        O360   1.260       .  A
N358        O362   1.260       .  A
N358        O361   1.262       .  A
C363        C364   1.426       .  A
C363        C368   1.410       .  A
C363        H370   1.075       .  S
C364        C365   1.430       .  A
C365        C366   1.404       .  A
C365        N372   1.422       .  S
C366        C367   1.395       .  A
C366        H371   1.085       .  S
C367        C368   1.403       .  A
C368        N369   1.429       .  S
N369        O373   1.262       .  A
N369        O374   1.262       .  A
N372        O376   1.262       .  A
N372        O375   1.261       .  A
C377        C378   1.409       .  A
C377        C382   1.414       .  A
C377        H384   1.084       .  S
C378        C379   1.406       .  A
C379        C380   1.416       .  A
C379        N386   1.427       .  S
C380        C381   1.425       .  A
C380        H385   1.075       .  S
C381        C382   1.437       .  A
C381        C696   1.605   1_545  S
C382        N383   1.435       .  S
N383        O387   1.261   1_545  A
N383        O388   1.262       .  A
N386        O390   1.262       .  A
N386        O389   1.261       .  A
C391        C392   1.414       .  A
C391        C396   1.422       .  A
C391        H398   1.084       .  S
C392        C393   1.399       .  A
C393        C394   1.407       .  A
C393        N400   1.424       .  S
C394        C395   1.425       .  A
C394        H399   1.073       .  S
C395        C396   1.433       .  A
C396        N397   1.435       .  S
N397        O401   1.262       .  A
N397        O402   1.261       .  A
N400        O404   1.258       .  A
N400        O403   1.259       .  A
C405        C406   1.406       .  A
C405        C410   1.395       .  A
C405        H412   1.084       .  S
C406        C407   1.396       .  A
C407        C408   1.388       .  A
C407        N414   1.434       .  S
C408        C409   1.401       .  A
C408        H413   1.084       .  S
C409        C410   1.406       .  A
C410        N411   1.427       .  S
N411        O415   1.262       .  A
N411        O416   1.262       .  A
N414        O418   1.262       .  A
N414        O417   1.258       .  A
C419        C420   1.409       .  A
C419        C424   1.386       .  A
C419        H426   1.077       .  S
C420        C421   1.417       .  A
C421        C422   1.395       .  A
C421        N428   1.425       .  S
C422        C423   1.396       .  A
C422        H427   1.082       .  S
C423        C424   1.393       .  A
C424        N425   1.427       .  S
N425        O429   1.261       .  A
N425        O430   1.261       .  A
N428        O432   1.260       .  A
N428        O431   1.262       .  A
C433        C434   1.388       .  A
C433        C438   1.393       .  A
C433        H440   1.080       .  S
C434        C435   1.412       .  A
C435        C436   1.390       .  A
C435        N442   1.428       .  S
C436        C437   1.396       .  A
C436        H441   1.084       .  S
C437        C438   1.409       .  A
C438        N439   1.426       .  S
N439        O443   1.255       .  A
N439        O444   1.261       .  A
N442        O446   1.260       .  A
N442        O445   1.261       .  A
C447        C448   1.402       .  A
C447        C452   1.387       .  A
C447        H454   1.084       .  S
C448        C449   1.391       .  A
C449        C450   1.392       .  A
C449        N456   1.426       .  S
C450        C451   1.404       .  A
C450        H455   1.083       .  S
C451        C452   1.405       .  A
C452        N453   1.429       .  S
N453        O457   1.262       .  A
N453        O458   1.262       .  A
N456        O460   1.260       .  A
N456        O459   1.261       .  A
C461        C462   1.407       .  A
C461        C466   1.410       .  A
C461        H468   1.079       .  S
C462        C463   1.436       .  A
C463        C464   1.419       .  A
C463        N470   1.427       .  S
C464        C465   1.402       .  A
C464        H469   1.083       .  S
C465        C466   1.438       .  A
C466        N467   1.433       .  S
N467        O471   1.262       .  A
N467        O472   1.262       .  A
N470        O474   1.262       .  A
N470        O473   1.262       .  A
C475        C476   1.395       .  A
C475        C480   1.413       .  A
C475        H482   1.084       .  S
C476        C477   1.410       .  A
C477        C478   1.405       .  A
C477        N484   1.429       .  S
C478        C479   1.415       .  A
C478        H483   1.080       .  S
C479        C480   1.452       .  A
C479       C1209   1.588       .  S
C480        N481   1.436       .  S
N481        O485   1.262       .  A
N481        O486   1.260       .  A
N484        O488   1.262       .  A
N484        O487   1.262       .  A
C489        C490   1.402       .  A
C489        C494   1.421       .  A
C489        H496   1.083       .  S
C490        C491   1.417       .  A
C491        C492   1.396       .  A
C491        N498   1.432       .  S
C492        C493   1.394       .  A
C492        H497   1.069       .  S
C493        C494   1.440       .  A
C494        N495   1.425       .  S
N495        O499   1.262       .  A
N495        O500   1.262       .  A
N498        O502   1.261       .  A
N498        O501   1.262       .  A
C503        C504   1.405       .  A
C503        C508   1.406       .  A
C503        H510   1.084       .  S
C504        C505   1.400       .  A
C505        C506   1.411       .  A
C505        N512   1.428       .  S
C506        C507   1.431       .  A
C506        H511   1.068       .  S
C507        C508   1.461       .  A
C507        C694   1.616   1_545  S
C508        N509   1.441       .  S
N509        O513   1.259       .  A
N509        O514   1.264       .  A
N512        O516   1.262       .  A
N512        O515   1.262       .  A
O517        C528   1.308       .  A
O517       Eu553   2.562       .  S
O518        C529   1.313       .  A
O518       Eu552   2.581       .  S
O519        C530   1.282       .  A
O519       Eu525   2.423       .  S
O520        C531   1.285       .  A
O520       Eu525   2.440       .  S
O521        C531   1.287       .  A
O521       Eu555   2.433       .  S
O522        C530   1.286       .  A
O522       Eu554   2.422       .  S
O523        C529   1.287       .  A
O523       Eu525   2.431       .  S
O524        C528   1.284       .  A
O524       Eu525   2.411       .  S
Eu525       O535   2.335       .  S
Eu525       O527   2.349       .  S
Eu525       O526   2.357       .  S
Eu525       O533   2.356       .  S
O526       Eu555   2.350       .  S
O526       Eu552   2.404       .  S
O527       Eu553   2.389       .  S
O527       Eu554   2.347       .  S
C528       C1020   1.516       .  S
C529        C894   1.513       .  S
C530        C925   1.452       .  S
C531        C936   1.476       .  S
H532        O533   0.957       .  S
O533       Eu554   2.353       .  S
O533       Eu552   2.375       .  S
H534        O535   0.977       .  S
O535       Eu553   2.342       .  S
O535       Eu555   2.342       .  S
O536        C559   1.316       .  A
O536       Eu552   2.595       .  S
O537        C560   1.306       .  A
O537       Eu553   2.545       .  S
O538        C561   1.290       .  A
O538       Eu554   2.449       .  S
O539        C562   1.290       .  A
O539       Eu555   2.445       .  S
O540        C563   1.281       .  A
O540       Eu555   2.404       .  S
O541        C564   1.289       .  A
O541       Eu554   2.444       .  S
O542        C565   1.275       .  A
O542       Eu556   2.381       .  S
O543        C566   1.276       .  A
O543       Eu556   2.388       .  S
O544        C565   1.288       .  A
O544       Eu554   2.452       .  S
O545        C566   1.287       .  A
O545       Eu555   2.449       .  S
O546        C561   1.315       .  A
O546       Eu552   2.588       .  S
O547        C564   1.305       .  A
O547       Eu553   2.533       .  S
O548        C563   1.321       .  A
O548       Eu553   2.618       .  S
O549        C562   1.302       .  A
O549       Eu552   2.516       .  S
O550        C559   1.285       .  A
O550       Eu556   2.431       .  S
O551        C560   1.283       .  A
O551       Eu556   2.422       .  S
Eu552       O570   2.391       .  S
Eu552       O558   2.365       .  S
Eu553       O557   2.366       .  S
Eu553       O568   2.399       .  S
Eu554       O568   2.354       .  S
Eu554       O558   2.338       .  S
Eu555       O557   2.338       .  S
Eu555       O570   2.341       .  S
Eu556       O557   2.327       .  S
Eu556       O568   2.353       .  S
Eu556       O570   2.346       .  S
Eu556       O558   2.334       .  S
C559        C908   1.520       .  S
C560       C1006   1.509       .  S
C561        C869   1.524       .  S
C562        C883   1.488       .  S
C563        C981   1.531       .  S
C564        C992   1.497       .  S
C565        C967   1.445       .  S
C566        C953   1.448       .  S
H567        O568   0.982       .  S
H569        O570   0.967       .  S
N571        H603   1.042       .  S
N571       C1608   1.349       .  A
N571        C575   1.350   1_655  A
N572        C580   1.342       .  A
N573        H604   1.042       .  S
N573       C1610   1.351   1_655  A
N573        C577   1.338   1_655  A
N574        C582   1.343       .  A
C575        C583   1.389       .  A
C575        C591   1.407       .  A
C576       N1603   1.348       .  A
C576        C592   1.388       .  A
C576        C584   1.381       .  A
C577        C585   1.392       .  A
C577        C594   1.411       .  A
C578       N1605   1.349       .  A
C578        C593   1.393       .  A
C578        C586   1.378       .  A
C579        C591   1.394       .  A
C579        C587   1.387       .  A
C580        C594   1.397       .  A
C580        C588   1.387       .  A
C581        C589   1.379       .  A
C581        C592   1.387       .  A
C582        C590   1.387       .  A
C582        C593   1.391       .  A
C583       C1616   1.370   1_455  A
C583        H595   1.082       .  S
C584       C1615   1.370       .  A
C584        H596   1.083       .  S
C585       C1618   1.377       .  A
C585        H597   1.078       .  S
C586       C1617   1.379       .  A
C586        H598   1.082       .  S
C587        H599   1.083       .  S
C588        H600   1.083       .  S
C589        H601   1.082       .  S
C590        H602   1.080       .  S
C591        C950   1.467       .  S
C592        C964   1.457       .  S
C593        C922   1.465       .  S
C594        C939   1.462       .  S
O605        C616   1.313       .  A
O606        C617   1.316       .  A
O606       Eu640   2.595       .  S
O607        C618   1.287       .  A
O607      Eu1645   2.442   1_454  S
O608        C619   1.293       .  A
O608       Eu613   2.482       .  S
O609        C619   1.277       .  A
O609       Eu643   2.380   1_565  S
O610        C618   1.291       .  A
O610       Eu642   2.462       .  S
O611        C617   1.280       .  A
O611       Eu613   2.406   1_554  S
O612        C616   1.288       .  A
O612       Eu613   2.440       .  S
Eu613      O1639   2.437   1_556  S
Eu613       O623   2.322       .  S
Eu613      O1647   2.370       .  S
Eu613       O614   2.353   1_556  S
Eu613      O1653   2.354   1_556  S
O614       Eu643   2.351   1_564  S
O614       Eu640   2.389       .  S
O615      Eu1645   2.371   1_455  S
O615      Eu1157   2.386   1_565  S
O615       Eu642   2.353   1_556  S
C616        C852   1.520       .  S
C617        C726   1.528       .  S
C618        C757   1.481       .  S
C619        C771   1.478       .  S
H620        O621   0.950       .  S
O621      Eu1645   2.355   1_454  S
O621       Eu642   2.358       .  S
O621      Eu1672   2.351   1_455  S
H622        O623   0.970       .  S
O623       Eu643   2.356   1_565  S
O624        C647   1.307       .  A
O625        C648   1.315       .  A
O625       Eu641   2.589       .  S
O626        C649   1.276       .  A
O626       Eu642   2.390   1_545  S
O627        C650   1.288       .  A
O627       Eu643   2.448   1_554  S
O628        C651   1.290       .  A
O629        C652   1.295       .  A
O630        C653   1.275       .  A
O630      Eu1676   2.386   1_455  S
O631        C654   1.280       .  A
O631       Eu644   2.410   1_556  S
O632        C653   1.290       .  A
O633        C654   1.283       .  A
O634        C649   1.316       .  A
O634      Eu1672   2.594   1_445  S
O635        C652   1.308       .  A
O635      Eu1673   2.552       .  S
O636        C651   1.308       .  A
O636       Eu641   2.550       .  S
O637        C650   1.310   1_565  A
O637       Eu640   2.552       .  S
O638        C647   1.290       .  A
O638       Eu644   2.450       .  S
O639        C648   1.287       .  A
O639       Eu644   2.437   1_556  S
Eu640      O1666   2.593   1_565  S
Eu640      O1653   2.354       .  S
Eu640      O1162   2.368   1_565  S
Eu641      O1667   2.552       .  S
Eu641      O1131   2.382       .  S
Eu641       O645   2.389       .  S
Eu641      O1688   2.387       .  S
Eu644      O1662   2.384       .  S
Eu644       O645   2.338   1_554  S
Eu644      O1688   2.377   1_554  S
Eu644       O658   2.348       .  S
Eu644      O1678   2.329       .  S
O646      Eu1156   2.367   1_455  S
O646      Eu1676   2.328   1_455  S
C647        C740   1.511       .  S
C648        C841   1.517       .  S
C649        C701   1.519       .  S
C650        C715   1.520   1_545  S
C651        C813   1.514       .  S
C652        C824   1.521       .  S
C653        C796   1.444       .  S
C654        C785   1.453       .  S
H655        O656   0.960       .  S
O656      Eu1673   2.388       .  S
O656      Eu1676   2.377   1_456  S
H657        O658   0.969       .  S
N659        H691   1.041       .  S
N659        C664   1.353   1_556  A
N659        C663   1.347       .  A
N660        C667   1.338       .  A
N660        C668   1.347       .  A
N661        H692   1.045   1_556  S
N661        C666   1.341   1_556  A
N661        C665   1.344       .  A
N662        C669   1.334       .  A
N662        C670   1.338       .  A
C663        C671   1.389       .  A
C663        C679   1.401       .  A
C664        C680   1.398       .  A
C664        C672   1.382   1_554  A
C665        C673   1.375       .  A
C665        C682   1.386       .  A
C666        C681   1.408       .  A
C666        C674   1.394   1_554  A
C667        C679   1.394       .  A
C667        C675   1.382       .  A
C668        C682   1.402       .  A
C668        C676   1.384       .  A
C669        C677   1.391       .  A
C669        C680   1.402       .  A
C670        C678   1.381       .  A
C670        C681   1.389       .  A
C671        C672   1.368       .  A
C671        H683   1.081       .  S
C672        H684   1.083   1_556  S
C673        C674   1.370       .  A
C673        H685   1.083       .  S
C674        H686   1.074       .  S
C675        C676   1.370       .  A
C675        H687   1.078       .  S
C676        H688   1.078       .  S
C677        C678   1.372       .  A
C677        H689   1.076       .  S
C678        H690   1.083       .  S
C679        C782   1.455       .  S
C680        C799   1.487       .  S
C681        C754   1.460       .  S
C682        C768   1.494       .  S
C693        C729   1.575       .  S
C693        C743   1.612       .  S
C693        C978   1.595   1_655  S
C693       C2027   1.588       .  S
C694        C698   1.635   1_565  S
C694        C712   1.620       .  S
C694       C1009   1.585       .  S
C695        C838   1.601       .  S
C695        C855   1.615       .  S
C695       C1898   1.622   1_455  S
C695        C880   1.588       .  S
C696        C911   1.602       .  S
C697        C702   1.404       .  A
C697        H704   1.074       .  S
C698        C699   1.457   1_545  A
C699        C700   1.420       .  A
C699        N706   1.421       .  S
C700        C701   1.392   1_565  A
C700        H705   1.084       .  S
C702        N703   1.438       .  S
N703        O707   1.260       .  A
N706        O710   1.263       .  A
C711        C712   1.419       .  A
C711        C716   1.410       .  A
C711        H718   1.076       .  S
C712        C713   1.438   1_565  A
C713        C714   1.415       .  A
C713        N720   1.415       .  S
C714        C715   1.393   1_545  A
C714        H719   1.084       .  S
C715        C716   1.418       .  A
C716        N717   1.425       .  S
N717        O721   1.260       .  A
N720        O723   1.263   1_545  A
C725       C1758   1.400       .  A
C725        C730   1.418       .  A
C725        H732   1.083       .  S
C726       C1757   1.402       .  A
C726        C727   1.434       .  A
C727        C728   1.404       .  A
C727        N734   1.426       .  S
C728       C1761   1.396       .  A
C728        H733   1.078       .  S
C729       C1760   1.397       .  A
C729        C730   1.440       .  A
C730        N731   1.430       .  S
N731        O735   1.257   1_655  A
N731        O736   1.261       .  A
N734        O738   1.259       .  A
N734        O737   1.261       .  A
C739        C740   1.403       .  A
C739        C744   1.409       .  A
C739        H746   1.085       .  S
C740       C1773   1.417       .  A
C741       C1772   1.418   1_455  A
C741        C742   1.426       .  A
C741        N748   1.444       .  S
C742        C743   1.435   1_455  A
C742        H747   1.078       .  S
C743       C1776   1.430       .  A
C744       C1775   1.429       .  A
C744        N745   1.424       .  S
N745        O749   1.263       .  A
N745        O750   1.263       .  A
N748        O752   1.262       .  A
N748        O751   1.261       .  A
C753        C754   1.379       .  A
C753        C758   1.384       .  A
C753        H760   1.084       .  S
C754        C755   1.403       .  A
C755        C756   1.402       .  A
C755        N762   1.431       .  S
C756        C757   1.410       .  A
C756        H761   1.079       .  S
C757        C758   1.415       .  A
C758        N759   1.415       .  S
N759        O763   1.257       .  A
N759        O764   1.260       .  A
N762        O766   1.261       .  A
N762        O765   1.261       .  A
C767        C768   1.405       .  A
C767        C772   1.390       .  A
C767        H774   1.069       .  S
C768        C769   1.413       .  A
C769        C770   1.395       .  A
C769        N776   1.436       .  S
C770        C771   1.409       .  A
C770        H775   1.078       .  S
C771        C772   1.403       .  A
C772        N773   1.428       .  S
N773        O777   1.259       .  A
N773        O778   1.261       .  A
N776        O780   1.262       .  A
N776        O779   1.261   1_556  A
C781        C782   1.382       .  A
C781        C786   1.384       .  A
C781        H788   1.085       .  S
C782        C783   1.411       .  A
C783        C784   1.392       .  A
C783        N790   1.419       .  S
C784        C785   1.393       .  A
C784        H789   1.084       .  S
C785        C786   1.408       .  A
C786        N787   1.410       .  S
N787        O791   1.259       .  A
N787        O792   1.261       .  A
N790        O794   1.260       .  A
N790        O793   1.262       .  A
C795        C796   1.384   1_556  A
C795        C800   1.385   1_556  A
C795        H802   1.085       .  S
C796        C797   1.401       .  A
C797        C798   1.392       .  A
C797        N804   1.427       .  S
C798        C799   1.400       .  A
C798        H803   1.077       .  S
C799        C800   1.431       .  A
C800        N801   1.432   1_554  S
N801        O805   1.263       .  A
N801        O806   1.261       .  A
N804        O808   1.261       .  A
N804        O807   1.261       .  A
C809        H816   1.068       .  S
C810        C811   1.428       .  A
C811        C812   1.411       .  A
C811        N818   1.425       .  S
C812        C813   1.409       .  A
C812        H817   1.084       .  S
C813        C814   1.413       .  A
C814        N815   1.438       .  S
N815        O820   1.263       .  A
N818        O822   1.261       .  A
C823        C824   1.410       .  A
C823        C828   1.423       .  A
C823        H830   1.084       .  S
C825        C826   1.414       .  A
C825        N832   1.429       .  S
C826        H831   1.076       .  S
C827        C828   1.437       .  A
C828        N829   1.432       .  S
N829        O833   1.261       .  A
N832        O836   1.262       .  A
C837       C1870   1.403       .  A
C837        C842   1.406       .  A
C837        H844   1.084       .  S
C838       C1869   1.404   1_455  A
C838        C839   1.448       .  A
C839        C840   1.421       .  A
C839        N846   1.431       .  S
C840       C1873   1.397       .  A
C840        H845   1.084       .  S
C841       C1872   1.399       .  A
C841        C842   1.417       .  A
C842        N843   1.415       .  S
N843        O847   1.261       .  A
N843        O848   1.259       .  A
N846        O850   1.262       .  A
N846        O849   1.260       .  A
C851       C1884   1.407       .  A
C851        C856   1.417       .  A
C851        H858   1.084       .  S
C852       C1883   1.408       .  A
C852        C853   1.414       .  A
C853        C854   1.424       .  A
C853        N860   1.436       .  S
C854       C1887   1.429       .  A
C854        H859   1.076       .  S
C855       C1886   1.429   1_455  A
C855        C856   1.434       .  A
C856        N857   1.428       .  S
N857        O861   1.262       .  A
N857        O862   1.262       .  A
N860        O864   1.263       .  A
N860        O863   1.262       .  A
C865        C866   1.434       .  A
C865        C870   1.422       .  A
C865        H872   1.069       .  S
C866        C867   1.435       .  A
C866       C1727   1.620       .  S
C867        C868   1.419       .  A
C867        N874   1.431       .  S
C868        C869   1.412       .  A
C868        H873   1.083       .  S
C869        C870   1.408       .  A
C870        N871   1.432       .  S
N871        O875   1.262       .  A
N871        O876   1.260       .  A
N874        O878   1.260       .  A
N874        O877   1.262       .  A
C879        C880   1.426       .  A
C879        C884   1.409       .  A
C879        H886   1.075       .  S
C880        C881   1.431       .  A
C881        C882   1.405       .  A
C881        N888   1.423       .  S
C882        C883   1.395       .  A
C882        H887   1.085       .  S
C883        C884   1.403       .  A
C884        N885   1.428       .  S
N885        O889   1.262       .  A
N885        O890   1.262       .  A
N888        O892   1.262       .  A
N888        O891   1.260       .  A
C893        C894   1.409       .  A
C893        C898   1.415       .  A
C893        H900   1.084       .  S
C894        C895   1.407       .  A
C895        C896   1.416       .  A
C895        N902   1.427       .  S
C896        C897   1.425       .  A
C896        H901   1.075       .  S
C897        C898   1.437       .  A
C898        N899   1.435       .  S
N899        O903   1.262       .  A
N899        O904   1.262       .  A
N902        O906   1.262       .  A
N902        O905   1.262       .  A
C907        C908   1.416       .  A
C907        C912   1.423       .  A
C907        H914   1.084       .  S
C908        C909   1.401       .  A
C909        C910   1.410       .  A
C909        N916   1.422       .  S
C910        C911   1.426       .  A
C910        H915   1.074       .  S
C911        C912   1.432       .  A
C912        N913   1.434       .  S
N913        O917   1.262       .  A
N913        O918   1.261       .  A
N916        O920   1.258       .  A
N916        O919   1.260       .  A
C921        C922   1.406       .  A
C921        C926   1.395       .  A
C921        H928   1.084       .  S
C922        C923   1.396       .  A
C923        C924   1.385       .  A
C923        N930   1.434       .  S
C924        C925   1.399       .  A
C924        H929   1.084       .  S
C925        C926   1.405       .  A
C926        N927   1.428       .  S
N927        O931   1.262       .  A
N927        O932   1.262       .  A
N930        O934   1.262       .  A
N930        O933   1.258       .  A
C935        C936   1.409       .  A
C935        C940   1.388       .  A
C935        H942   1.078       .  S
C936        C937   1.416       .  A
C937        C938   1.395       .  A
C937        N944   1.425       .  S
C938        C939   1.398       .  A
C938        H943   1.083       .  S
C939        C940   1.395       .  A
C940        N941   1.433       .  S
N941        O945   1.261       .  A
N941        O946   1.262       .  A
N944        O948   1.259       .  A
N944        O947   1.262       .  A
C949        C950   1.390       .  A
C949        C954   1.399       .  A
C949        H956   1.078       .  S
C950        C951   1.410       .  A
C951        C952   1.387       .  A
C951        N958   1.428       .  S
C952        C953   1.395       .  A
C952        H957   1.084       .  S
C953        C954   1.415       .  A
C954        N955   1.440       .  S
N955        O959   1.260       .  A
N955        O960   1.261       .  A
N958        O962   1.260       .  A
N958        O961   1.261       .  A
C963        C964   1.403       .  A
C963        C968   1.387       .  A
C963        H970   1.084       .  S
C964        C965   1.393       .  A
C965        C966   1.392       .  A
C965        N972   1.427       .  S
C966        C967   1.404       .  A
C966        H971   1.083       .  S
C967        C968   1.405       .  A
C968        N969   1.429       .  S
N969        O973   1.262       .  A
N969        O974   1.262       .  A
N972        O976   1.261       .  A
N972        O975   1.260       .  A
C977        C978   1.408       .  A
C977        C982   1.411       .  A
C977        H984   1.079       .  S
C978        C979   1.437       .  A
C979        C980   1.419       .  A
C979        N986   1.427       .  S
C980        C981   1.402       .  A
C980        H985   1.083       .  S
C981        C982   1.436       .  A
C982        N983   1.432       .  S
N983        O987   1.261       .  A
N983        O988   1.261       .  A
N986        O990   1.261       .  A
N986        O989   1.262       .  A
C991        C992   1.395       .  A
C991        C996   1.413       .  A
C991        H998   1.084       .  S
C992        C993   1.410       .  A
C993        C994   1.405       .  A
C993       N1000   1.429       .  S
C994        C995   1.415       .  A
C994        H999   1.082       .  S
C995        C996   1.454       .  A
C995       C1725   1.588       .  S
C996        N997   1.438       .  S
N997       O1001   1.261       .  A
N997       O1002   1.260       .  A
N1000      O1004   1.262       .  A
N1000      O1003   1.262       .  A
C1005      C1006   1.402       .  A
C1005      C1010   1.421       .  A
C1005      H1012   1.083       .  S
C1006      C1007   1.417       .  A
C1007      C1008   1.398       .  A
C1007      N1014   1.432       .  S
C1008      C1009   1.397       .  A
C1008      H1013   1.072       .  S
C1009      C1010   1.438       .  A
C1010      N1011   1.424       .  S
N1011      O1015   1.262       .  A
N1011      O1016   1.261       .  A
N1014      O1018   1.261       .  A
N1014      O1017   1.262       .  A
C1019      C1020   1.408       .  A
C1019      C1024   1.408       .  A
C1019      H1026   1.084       .  S
C1020      C1021   1.399       .  A
C1021      C1022   1.412       .  A
C1021      N1028   1.427       .  S
C1022      C1023   1.431       .  A
C1022      H1027   1.068       .  S
C1023      C1024   1.459       .  A
C1024      N1025   1.441       .  S
N1025      O1029   1.259       .  A
N1025      O1030   1.264       .  A
N1028      O1032   1.262       .  A
N1028      O1031   1.262       .  A
O1033      C1044   1.305       .  A
O1033     Eu1069   2.547       .  S
O1034      C1045   1.313       .  A
O1034     Eu1068   2.581       .  S
O1035      C1046   1.283       .  A
O1035     Eu1041   2.430       .  S
O1036      C1047   1.284       .  A
O1036     Eu1041   2.436       .  S
O1037      C1047   1.287       .  A
O1037     Eu1071   2.431       .  S
O1038      C1046   1.287       .  A
O1038     Eu1070   2.431       .  S
O1039      C1045   1.286       .  A
O1039     Eu1041   2.430       .  S
O1040      C1044   1.285       .  A
O1040     Eu1041   2.419       .  S
Eu1041     O1051   2.335       .  S
Eu1041     O1043   2.349       .  S
Eu1041     O1042   2.357       .  S
Eu1041     O1049   2.355       .  S
O1042     Eu1071   2.350       .  S
O1042     Eu1068   2.397       .  S
O1043     Eu1069   2.396       .  S
O1043     Eu1070   2.354       .  S
C1044      C1536   1.513       .  S
C1045      C1410   1.513       .  S
C1046      C1441   1.459       .  S
C1047      C1452   1.474       .  S
H1048      O1049   0.957       .  S
O1049     Eu1070   2.353       .  S
O1049     Eu1068   2.370       .  S
H1050      O1051   0.971       .  S
O1051     Eu1069   2.339       .  S
O1051     Eu1071   2.342       .  S
O1052      C1075   1.314       .  A
O1052     Eu1068   2.580       .  S
O1053      C1076   1.305       .  A
O1053     Eu1069   2.542       .  S
O1054      C1077   1.290       .  A
O1054     Eu1070   2.450       .  S
O1055      C1078   1.290       .  A
O1055     Eu1071   2.445       .  S
O1056      C1079   1.280       .  A
O1056     Eu1071   2.394       .  S
O1057      C1080   1.289       .  A
O1057     Eu1070   2.443       .  S
O1058      C1081   1.275       .  A
O1058     Eu1072   2.382       .  S
O1059      C1082   1.276       .  A
O1059     Eu1072   2.389       .  S
O1060      C1081   1.290       .  A
O1060     Eu1070   2.463       .  S
O1061      C1082   1.289       .  A
O1061     Eu1071   2.464       .  S
O1062      C1077   1.316       .  A
O1062     Eu1068   2.595       .  S
O1063      C1080   1.305       .  A
O1063     Eu1069   2.529       .  S
O1064      C1079   1.322       .  A
O1064     Eu1069   2.622       .  S
O1065      C1078   1.302       .  A
O1065     Eu1068   2.515       .  S
O1066      C1075   1.285       .  A
O1066     Eu1072   2.428       .  S
O1067      C1076   1.283       .  A
O1067     Eu1072   2.424       .  S
Eu1068     O1086   2.394       .  S
Eu1068     O1074   2.366       .  S
Eu1069     O1073   2.362       .  S
Eu1069     O1084   2.402       .  S
Eu1070     O1084   2.360       .  S
Eu1070     O1074   2.336       .  S
Eu1071     O1073   2.337       .  S
Eu1071     O1086   2.335       .  S
Eu1072     O1073   2.326       .  S
Eu1072     O1084   2.350       .  S
Eu1072     O1086   2.350       .  S
Eu1072     O1074   2.337       .  S
C1075      C1424   1.511       .  S
C1076      C1522   1.510       .  S
C1077      C1385   1.526       .  S
C1078      C1399   1.488       .  S
C1079      C1497   1.529       .  S
C1080      C1508   1.492       .  S
C1081      C1483   1.450       .  S
C1082      C1469   1.451       .  S
H1083      O1084   0.982       .  S
H1085      O1086   0.969       .  S
N1087      H1119   1.042       .  S
N1087      C1091   1.349       .  A
N1088      C1611   1.337   1_545  A
N1088      C1096   1.342       .  A
N1089      H1120   1.043       .  S
N1089      C1093   1.338       .  A
N1090      C1613   1.342       .  A
N1090      C1098   1.343   1_565  A
C1091      C1099   1.389       .  A
C1091      C1107   1.405       .  A
C1092      C1108   1.389       .  A
C1092      C1100   1.380       .  A
C1093      C1101   1.393       .  A
C1093      C1110   1.411       .  A
C1094      C1109   1.394   1_455  A
C1094      C1102   1.378       .  A
C1095      N1604   1.337       .  A
C1095      C1107   1.394       .  A
C1095      C1103   1.387       .  A
C1096      C1110   1.396       .  A
C1096      C1104   1.386       .  A
C1097      N1606   1.341       .  A
C1097      C1105   1.378       .  A
C1097      C1108   1.386       .  A
C1098      C1106   1.387       .  A
C1098      C1109   1.392       .  A
C1099      H1111   1.083       .  S
C1100      H1112   1.083       .  S
C1101      H1113   1.079       .  S
C1102      H1114   1.082       .  S
C1103      C1620   1.373       .  A
C1103      H1115   1.082       .  S
C1104      C1619   1.372   1_545  A
C1104      H1116   1.082       .  S
C1105      C1622   1.365       .  A
C1105      H1117   1.082       .  S
C1106      C1621   1.366   1_545  A
C1106      H1118   1.080       .  S
C1107      C1466   1.467       .  S
C1108      C1480   1.459       .  S
C1109      C1438   1.467       .  S
C1110      C1455   1.461       .  S
O1121      C1132   1.312       .  A
O1121     Eu1673   2.573       .  S
O1122      C1133   1.316       .  A
O1122     Eu1156   2.593       .  S
O1123      C1134   1.287       .  A
O1124      C1135   1.293       .  A
O1124     Eu1129   2.485       .  S
O1125      C1135   1.276       .  A
O1125     Eu1159   2.374       .  S
O1126      C1134   1.292       .  A
O1126     Eu1158   2.465       .  S
O1127      C1133   1.280       .  A
O1127     Eu1129   2.402   1_554  S
O1128      C1132   1.287       .  A
O1128     Eu1129   2.433   1_455  S
Eu1129     O1139   2.320       .  S
Eu1129     O1130   2.349   1_556  S
O1130     Eu1159   2.349   1_554  S
O1130     Eu1156   2.388       .  S
O1131     Eu1158   2.351   1_556  S
C1132      C1368   1.514       .  S
C1133      C1242   1.525       .  S
C1134      C1273   1.477       .  S
C1135      C1287   1.478       .  S
H1136      O1137   0.949       .  S
O1137     Eu1158   2.359       .  S
H1138      O1139   0.969       .  S
O1139     Eu1673   2.372   1_655  S
O1139     Eu1159   2.354       .  S
O1140      C1163   1.306       .  A
O1140     Eu1672   2.548   1_545  S
O1141      C1164   1.316       .  A
O1141     Eu1157   2.591       .  S
O1142      C1165   1.276       .  A
O1142     Eu1158   2.381       .  S
O1143      C1166   1.289       .  A
O1143     Eu1159   2.450   1_554  S
O1144      C1167   1.288       .  A
O1144     Eu1675   2.436   1_565  S
O1145      C1168   1.294       .  A
O1145     Eu1674   2.481   1_556  S
O1146      C1169   1.275       .  A
O1147      C1170   1.280       .  A
O1147     Eu1160   2.410   1_556  S
O1148      C1169   1.288       .  A
O1148     Eu1674   2.450   1_545  S
O1149      C1170   1.285       .  A
O1149     Eu1675   2.435       .  S
O1150      C1165   1.317       .  A
O1151      C1168   1.307       .  A
O1152      C1167   1.309       .  A
O1152     Eu1157   2.559   1_665  S
O1153      C1166   1.307       .  A
O1153     Eu1156   2.542       .  S
O1154      C1163   1.292       .  A
O1154     Eu1160   2.463       .  S
O1155      C1164   1.286       .  A
O1155     Eu1160   2.434   1_456  S
Eu1156     O1656   2.546       .  S
Eu1156     O1690   2.400       .  S
Eu1157     O1637   2.584   1_545  S
Eu1157     O1655   2.368   1_445  S
Eu1157     O1161   2.393   1_455  S
Eu1158     O1661   2.484   1_554  S
Eu1158     O1664   2.468       .  S
Eu1158     O1688   2.341   1_554  S
Eu1158     O1678   2.346       .  S
Eu1159     O1660   2.443       .  S
Eu1159     O1665   2.418       .  S
Eu1159     O1677   2.337       .  S
Eu1159     O1690   2.346   1_556  S
Eu1160     O1161   2.343   1_554  S
Eu1160     O1174   2.348       .  S
O1161     Eu1675   2.340       .  S
O1162     Eu1674   2.348   1_545  S
C1163      C1256   1.513       .  S
C1164      C1357   1.517       .  S
C1165      C1217   1.514       .  S
C1166      C1231   1.518       .  S
C1167      C1329   1.515       .  S
C1168      C1340   1.517       .  S
C1169      C1312   1.437       .  S
C1170      C1301   1.460       .  S
H1171      O1172   0.963       .  S
O1172     Eu1674   2.337   1_546  S
H1173      O1174   0.968       .  S
O1174     Eu1672   2.401   1_545  S
O1174     Eu1675   2.346   1_554  S
N1175      H1207   1.040       .  S
N1175      C1180   1.351       .  A
N1175      C1179   1.346       .  A
N1176      C1183   1.338       .  A
N1176      C1184   1.347       .  A
N1177      H1208   1.045   1_556  S
N1177      C1182   1.341   1_556  A
N1177      C1181   1.344       .  A
N1178      C1185   1.334       .  A
N1178      C1186   1.339       .  A
C1179      C1187   1.388       .  A
C1179      C1195   1.398       .  A
C1180      C1196   1.398   1_556  A
C1180      C1188   1.383       .  A
C1181      C1189   1.377       .  A
C1181      C1198   1.388       .  A
C1182      C1197   1.407       .  A
C1182      C1190   1.393   1_554  A
C1183      C1195   1.394       .  A
C1183      C1191   1.381       .  A
C1184      C1198   1.405       .  A
C1184      C1192   1.384       .  A
C1185      C1193   1.393       .  A
C1185      C1196   1.403       .  A
C1186      C1194   1.380       .  A
C1186      C1197   1.388       .  A
C1187      C1188   1.369       .  A
C1187      H1199   1.080       .  S
C1188      H1200   1.083       .  S
C1189      C1190   1.372       .  A
C1189      H1201   1.083       .  S
C1190      H1202   1.075       .  S
C1191      C1192   1.372       .  A
C1191      H1203   1.078       .  S
C1192      H1204   1.079       .  S
C1193      C1194   1.371       .  A
C1193      H1205   1.076       .  S
C1194      H1206   1.083       .  S
C1195      C1298   1.459       .  S
C1196      C1315   1.482       .  S
C1197      C1270   1.459       .  S
C1198      C1284   1.497       .  S
C1209      C1245   1.575       .  S
C1209      C1259   1.610       .  S
C1209      C1494   1.593       .  S
C1210      C1214   1.629       .  S
C1210      C1228   1.618       .  S
C1210      C1525   1.586       .  S
C1210      C2055   1.614       .  S
C1211      C1354   1.601       .  S
C1211      C1371   1.613       .  S
C1211      C1396   1.589       .  S
C1212      C1842   1.604       .  S
C1212      C1859   1.614       .  S
C1212      C1929   1.607       .  S
C1212      C1427   1.598       .  S
C1213      C1730   1.415       .  A
C1213      C1218   1.406       .  A
C1213      H1220   1.074       .  S
C1214      C1729   1.414       .  A
C1214      C1215   1.453       .  A
C1215      C1216   1.419       .  A
C1215      N1222   1.421       .  S
C1216      C1217   1.393       .  A
C1216      H1221   1.084       .  S
C1217      C1734   1.427       .  A
C1218      C1733   1.431       .  A
C1218      N1219   1.441       .  S
N1219      O1223   1.260       .  A
N1219      O1740   1.260       .  A
N1222      O1226   1.263       .  A
N1222      O1741   1.262       .  A
O1224      N1735   1.259       .  A
O1225      N1738   1.262   1_545  A
C1227      C1228   1.417       .  A
C1227      C1232   1.406       .  A
C1227      H1234   1.075       .  S
C1228      C1229   1.438       .  A
C1229      C1230   1.418       .  A
C1229      N1236   1.417       .  S
C1230      C1231   1.396       .  A
C1230      H1235   1.084       .  S
C1231      C1232   1.417       .  A
C1232      N1233   1.426       .  S
N1233      O1237   1.260       .  A
N1233      O1754   1.262       .  A
N1236      O1756   1.264       .  A
N1236      O1239   1.263       .  A
O1238      N1749   1.262   1_545  A
O1240      N1752   1.264   1_545  A
C1241      C1246   1.419       .  A
C1241      H1248   1.083       .  S
C1242      C1243   1.434       .  A
C1243      C1244   1.404       .  A
C1243      N1250   1.428       .  S
C1244      H1249   1.078       .  S
C1245      C1246   1.440       .  A
C1246      N1247   1.428       .  S
N1247      O1251   1.258       .  A
N1247      O1252   1.261       .  A
N1250      O1254   1.260       .  A
N1250      O1253   1.261   1_655  A
C1255      C1256   1.403       .  A
C1255      C1260   1.412       .  A
C1255      H1262   1.085       .  S
C1257      C1258   1.417       .  A
C1257      N1264   1.429       .  S
C1258      C1259   1.431       .  A
C1258      H1263   1.079       .  S
C1260      N1261   1.424       .  S
N1261      O1265   1.262       .  A
N1261      O1266   1.263       .  A
N1264      O1268   1.261       .  A
N1264      O1267   1.262       .  A
C1269      C1270   1.380       .  A
C1269      C1274   1.384       .  A
C1269      H1276   1.085       .  S
C1270      C1271   1.401       .  A
C1271      C1272   1.400       .  A
C1271      N1278   1.428       .  S
C1272      C1273   1.407       .  A
C1272      H1277   1.078       .  S
C1273      C1274   1.414       .  A
C1274      N1275   1.414       .  S
N1275      O1279   1.259       .  A
N1275      O1280   1.260       .  A
N1278      O1282   1.259       .  A
N1278      O1281   1.260       .  A
C1283      C1284   1.407       .  A
C1283      C1288   1.389       .  A
C1283      H1290   1.069       .  S
C1284      C1285   1.415       .  A
C1285      C1286   1.396       .  A
C1285      N1292   1.439       .  S
C1286      C1287   1.409       .  A
C1286      H1291   1.076       .  S
C1287      C1288   1.402       .  A
C1288      N1289   1.429       .  S
N1289      O1293   1.260       .  A
N1289      O1294   1.261       .  A
N1292      O1296   1.262       .  A
N1292      O1295   1.262   1_556  A
C1297      C1298   1.384       .  A
C1297      C1302   1.385       .  A
C1297      H1304   1.085       .  S
C1298      C1299   1.414       .  A
C1299      C1300   1.396       .  A
C1299      N1306   1.422       .  S
C1300      C1301   1.395       .  A
C1300      H1305   1.084       .  S
C1301      C1302   1.408       .  A
C1302      N1303   1.409       .  S
N1303      O1307   1.260       .  A
N1303      O1308   1.260       .  A
N1306      O1310   1.261       .  A
N1306      O1309   1.261       .  A
C1311      C1312   1.385   1_556  A
C1311      C1316   1.383       .  A
C1311      H1318   1.085       .  S
C1312      C1313   1.404       .  A
C1313      C1314   1.395       .  A
C1313      N1320   1.441       .  S
C1314      C1315   1.399       .  A
C1314      H1319   1.078       .  S
C1315      C1316   1.430   1_554  A
C1316      N1317   1.434       .  S
N1317      O1321   1.262       .  A
N1317      O1322   1.261       .  A
N1320      O1324   1.262       .  A
N1320      O1323   1.263       .  A
C1325      C1842   1.424       .  A
C1325      C1846   1.418       .  A
C1325      H1332   1.068       .  S
C1326      C1841   1.423   1_565  A
C1326      C1327   1.429       .  A
C1326      C1728   1.602       .  S
C1327      C1328   1.412       .  A
C1327      N1334   1.426       .  S
C1328      C1329   1.411       .  A
C1328      H1333   1.084       .  S
C1329      C1330   1.412   1_565  A
C1330      C1841   1.415       .  A
C1330      N1331   1.437       .  S
N1331      O1851   1.260       .  A
N1331      O1336   1.263       .  A
N1334      O1338   1.261       .  A
N1334      O1853   1.262       .  A
O1335      N1847   1.261       .  A
O1337      N1850   1.262       .  A
C1339      C1340   1.408   1_545  A
C1339      C1344   1.422       .  A
C1339      H1346   1.084       .  S
C1340      C1857   1.408       .  A
C1341      C1856   1.409       .  A
C1341      C1342   1.416       .  A
C1341      N1348   1.429       .  S
C1342      C1859   1.429       .  A
C1342      H1347   1.076       .  S
C1343      C1858   1.429       .  A
C1343      C1344   1.437   1_565  A
C1343      C1728   1.611       .  S
C1344      N1345   1.431       .  S
N1345      O1349   1.261       .  A
N1345      O1866   1.262       .  A
N1348      O1352   1.262       .  A
N1348      O1867   1.262       .  A
O1350      N1861   1.262       .  A
O1351      N1864   1.262       .  A
C1353      C1358   1.406       .  A
C1353      H1360   1.084       .  S
C1354      C1355   1.446       .  A
C1355      C1356   1.423       .  A
C1355      N1362   1.432       .  S
C1356      H1361   1.084       .  S
C1357      C1358   1.417   1_455  A
C1358      N1359   1.416       .  S
N1359      O1363   1.262       .  A
N1359      O1364   1.258       .  A
N1362      O1366   1.261       .  A
N1362      O1365   1.261       .  A
C1367      C1372   1.416       .  A
C1367      H1374   1.084       .  S
C1368      C1369   1.413   1_455  A
C1369      C1370   1.421       .  A
C1369      N1376   1.437       .  S
C1370      H1375   1.075       .  S
C1371      C1372   1.434       .  A
C1372      N1373   1.428       .  S
N1373      O1377   1.262       .  A
N1373      O1378   1.262       .  A
N1376      O1380   1.263       .  A
N1376      O1379   1.262       .  A
C1381      C1382   1.434       .  A
C1381      C1386   1.422       .  A
C1381      H1388   1.070       .  S
C1382      C1383   1.434       .  A
C1383      C1384   1.421       .  A
C1383      N1390   1.431       .  S
C1384      C1385   1.413       .  A
C1384      H1389   1.083       .  S
C1385      C1386   1.408       .  A
C1386      N1387   1.431       .  S
N1387      O1391   1.262       .  A
N1387      O1392   1.260       .  A
N1390      O1394   1.260   1_655  A
N1390      O1393   1.262   1_655  A
C1395      C1396   1.426       .  A
C1395      C1400   1.409       .  A
C1395      H1402   1.075       .  S
C1396      C1397   1.432       .  A
C1397      C1398   1.405       .  A
C1397      N1404   1.424       .  S
C1398      C1399   1.395       .  A
C1398      H1403   1.085       .  S
C1399      C1400   1.402       .  A
C1400      N1401   1.429       .  S
N1401      O1405   1.262       .  A
N1401      O1406   1.262       .  A
N1404      O1408   1.262       .  A
N1404      O1407   1.261       .  A
C1409      C1410   1.409       .  A
C1409      C1414   1.414       .  A
C1409      H1416   1.084       .  S
C1410      C1411   1.407       .  A
C1411      C1412   1.418       .  A
C1411      N1418   1.427       .  S
C1412      C1413   1.425       .  A
C1412      H1417   1.075       .  S
C1413      C1414   1.437       .  A
C1413      C1728   1.606   1_545  S
C1414      N1415   1.435       .  S
N1415      O1419   1.261   1_545  A
N1415      O1420   1.262       .  A
N1418      O1422   1.262       .  A
N1418      O1421   1.261       .  A
C1423      C1424   1.414       .  A
C1423      C1428   1.421       .  A
C1423      H1430   1.084       .  S
C1424      C1425   1.398       .  A
C1425      C1426   1.406       .  A
C1425      N1432   1.422       .  S
C1426      C1427   1.425       .  A
C1426      H1431   1.074       .  S
C1427      C1428   1.433       .  A
C1428      N1429   1.435       .  S
N1429      O1433   1.262       .  A
N1429      O1434   1.261       .  A
N1432      O1436   1.257       .  A
N1432      O1435   1.259       .  A
C1437      C1438   1.405       .  A
C1437      C1442   1.396       .  A
C1437      H1444   1.084       .  S
C1438      C1439   1.395       .  A
C1439      C1440   1.388       .  A
C1439      N1446   1.434       .  S
C1440      C1441   1.401       .  A
C1440      H1445   1.084       .  S
C1441      C1442   1.407       .  A
C1442      N1443   1.427       .  S
N1443      O1447   1.262       .  A
N1443      O1448   1.262       .  A
N1446      O1450   1.262       .  A
N1446      O1449   1.257       .  A
C1451      C1452   1.408       .  A
C1451      C1456   1.385       .  A
C1451      H1458   1.077       .  S
C1452      C1453   1.416       .  A
C1453      C1454   1.395       .  A
C1453      N1460   1.425       .  S
C1454      C1455   1.397       .  A
C1454      H1459   1.083       .  S
C1455      C1456   1.393       .  A
C1456      N1457   1.429       .  S
N1457      O1461   1.262       .  A
N1457      O1462   1.262       .  A
N1460      O1464   1.260       .  A
N1460      O1463   1.262       .  A
C1465      C1466   1.388       .  A
C1465      C1470   1.392       .  A
C1465      H1472   1.081       .  S
C1466      C1467   1.413       .  A
C1467      C1468   1.390       .  A
C1467      N1474   1.429       .  S
C1468      C1469   1.395       .  A
C1468      H1473   1.084       .  S
C1469      C1470   1.409       .  A
C1470      N1471   1.425       .  S
N1471      O1475   1.255       .  A
N1471      O1476   1.261       .  A
N1474      O1478   1.260       .  A
N1474      O1477   1.261       .  A
C1479      C1480   1.402       .  A
C1479      C1484   1.387       .  A
C1479      H1486   1.084       .  S
C1480      C1481   1.393       .  A
C1481      C1482   1.395       .  A
C1481      N1488   1.427       .  S
C1482      C1483   1.405       .  A
C1482      H1487   1.083       .  S
C1483      C1484   1.407       .  A
C1484      N1485   1.429       .  S
N1485      O1489   1.262       .  A
N1485      O1490   1.262       .  A
N1488      O1492   1.261       .  A
N1488      O1491   1.261       .  A
C1493      C1494   1.407       .  A
C1493      C1498   1.409       .  A
C1493      H1500   1.079       .  S
C1494      C1495   1.437       .  A
C1495      C1496   1.417       .  A
C1495      N1502   1.426       .  S
C1496      C1497   1.401       .  A
C1496      H1501   1.083       .  S
C1497      C1498   1.438       .  A
C1498      N1499   1.433       .  S
N1499      O1503   1.262       .  A
N1499      O1504   1.261       .  A
N1502      O1506   1.262       .  A
N1502      O1505   1.262       .  A
C1507      C1508   1.394       .  A
C1507      C1512   1.411       .  A
C1507      H1514   1.084       .  S
C1508      C1509   1.409       .  A
C1509      C1510   1.404       .  A
C1509      N1516   1.429       .  S
C1510      C1511   1.415       .  A
C1510      H1515   1.079       .  S
C1511      C1512   1.452       .  A
C1512      N1513   1.436       .  S
N1513      O1517   1.262       .  A
N1513      O1518   1.260       .  A
N1516      O1520   1.262       .  A
N1516      O1519   1.262       .  A
C1521      C1522   1.403       .  A
C1521      C1526   1.422       .  A
C1521      H1528   1.083       .  S
C1522      C1523   1.418       .  A
C1523      C1524   1.397       .  A
C1523      N1530   1.432       .  S
C1524      C1525   1.395       .  A
C1524      H1529   1.067       .  S
C1525      C1526   1.440       .  A
C1526      N1527   1.426       .  S
N1527      O1531   1.262       .  A
N1527      O1532   1.262       .  A
N1530      O1534   1.261       .  A
N1530      O1533   1.262       .  A
C1535      C1536   1.405       .  A
C1535      C1540   1.406       .  A
C1535      H1542   1.084       .  S
C1536      C1537   1.400       .  A
C1537      C1538   1.411       .  A
C1537      N1544   1.428       .  S
C1538      C1539   1.431       .  A
C1538      H1543   1.068       .  S
C1539      C1540   1.460       .  A
C1539      C1726   1.615   1_545  S
C1540      N1541   1.442       .  S
N1541      O1545   1.259       .  A
N1541      O1546   1.264       .  A
N1544      O1548   1.262       .  A
N1544      O1547   1.262       .  A
O1549      C1560   1.308       .  A
O1549     Eu1585   2.560       .  S
O1550      C1561   1.314       .  A
O1550     Eu1584   2.584       .  S
O1551      C1562   1.280       .  A
O1551     Eu1557   2.415       .  S
O1552      C1563   1.283       .  A
O1552     Eu1557   2.429       .  S
O1553      C1563   1.288       .  A
O1553     Eu1587   2.436       .  S
O1554      C1562   1.286       .  A
O1554     Eu1586   2.423       .  S
O1555      C1561   1.287       .  A
O1555     Eu1557   2.433       .  S
O1556      C1560   1.284       .  A
O1556     Eu1557   2.415       .  S
Eu1557     O1567   2.334       .  S
Eu1557     O1559   2.349       .  S
Eu1557     O1558   2.355       .  S
Eu1557     O1565   2.355       .  S
O1558     Eu1587   2.352       .  S
O1558     Eu1584   2.401       .  S
O1559     Eu1585   2.390       .  S
O1559     Eu1586   2.348       .  S
C1560      C2052   1.517       .  S
C1561      C1926   1.516       .  S
C1562      C1957   1.449       .  S
C1563      C1968   1.474       .  S
H1564      O1565   0.957       .  S
O1565     Eu1586   2.354       .  S
O1565     Eu1584   2.375       .  S
H1566      O1567   0.964       .  S
O1567     Eu1585   2.342       .  S
O1567     Eu1587   2.342       .  S
O1568      C1591   1.316       .  A
O1568     Eu1584   2.590       .  S
O1569      C1592   1.306       .  A
O1569     Eu1585   2.546       .  S
O1570      C1593   1.291       .  A
O1570     Eu1586   2.455       .  S
O1571      C1594   1.290       .  A
O1571     Eu1587   2.443       .  S
O1572      C1595   1.280       .  A
O1572     Eu1587   2.394       .  S
O1573      C1596   1.290       .  A
O1573     Eu1586   2.446       .  S
O1574      C1597   1.276       .  A
O1574     Eu1588   2.385       .  S
O1575      C1598   1.276       .  A
O1575     Eu1588   2.391       .  S
O1576      C1597   1.289       .  A
O1576     Eu1586   2.454       .  S
O1577      C1598   1.289       .  A
O1577     Eu1587   2.461       .  S
O1578      C1593   1.316       .  A
O1578     Eu1584   2.593       .  S
O1579      C1596   1.305       .  A
O1579     Eu1585   2.532       .  S
O1580      C1595   1.321       .  A
O1580     Eu1585   2.618       .  S
O1581      C1594   1.302       .  A
O1581     Eu1584   2.520       .  S
O1582      C1591   1.286       .  A
O1582     Eu1588   2.435       .  S
O1583      C1592   1.282       .  A
O1583     Eu1588   2.419       .  S
Eu1584     O1602   2.395       .  S
Eu1584     O1590   2.366       .  S
Eu1585     O1589   2.366       .  S
Eu1585     O1600   2.401       .  S
Eu1586     O1600   2.354       .  S
Eu1586     O1590   2.337       .  S
Eu1587     O1589   2.337       .  S
Eu1587     O1602   2.341       .  S
Eu1588     O1589   2.329       .  S
Eu1588     O1600   2.354       .  S
Eu1588     O1602   2.348       .  S
Eu1588     O1590   2.335       .  S
C1591      C1940   1.519       .  S
C1592      C2038   1.508       .  S
C1593      C1901   1.528       .  S
C1594      C1915   1.488       .  S
C1595      C2013   1.529       .  S
C1596      C2024   1.496       .  S
C1597      C1999   1.447       .  S
C1598      C1985   1.452       .  S
H1599      O1600   0.979       .  S
H1601      O1602   0.967       .  S
N1603      H1635   1.042       .  S
N1603      C1607   1.349       .  A
N1604      C1612   1.343       .  A
N1605      H1636   1.042       .  S
N1605      C1609   1.337       .  A
N1606      C1614   1.343       .  A
C1607      C1615   1.389       .  A
C1607      C1623   1.403       .  A
C1608      C1624   1.389       .  A
C1608      C1616   1.380       .  A
C1609      C1617   1.393       .  A
C1609      C1626   1.411       .  A
C1610      C1625   1.395   1_455  A
C1610      C1618   1.378       .  A
C1611      C1623   1.392       .  A
C1611      C1619   1.386       .  A
C1612      C1626   1.397       .  A
C1612      C1620   1.385       .  A
C1613      C1621   1.379       .  A
C1613      C1624   1.387       .  A
C1614      C1622   1.389       .  A
C1614      C1625   1.393       .  A
C1615      H1627   1.083       .  S
C1616      H1628   1.083       .  S
C1617      H1629   1.078       .  S
C1618      H1630   1.082       .  S
C1619      H1631   1.083       .  S
C1620      H1632   1.083       .  S
C1621      H1633   1.082       .  S
C1622      H1634   1.080       .  S
C1623      C1982   1.466       .  S
C1624      C1996   1.460       .  S
C1625      C1954   1.464       .  S
C1626      C1971   1.461       .  S
O1637      C1648   1.314       .  A
O1638      C1649   1.316       .  A
O1638     Eu1672   2.594       .  S
O1639      C1650   1.287       .  A
O1640      C1651   1.293       .  A
O1640     Eu1645   2.484       .  S
O1641      C1651   1.278       .  A
O1641     Eu1675   2.383   1_565  S
O1642      C1650   1.290       .  A
O1642     Eu1674   2.458       .  S
O1643      C1649   1.280       .  A
O1643     Eu1645   2.402   1_554  S
O1644      C1648   1.287       .  A
O1644     Eu1645   2.437   1_455  S
Eu1645     O1655   2.323       .  S
Eu1645     O1646   2.354   1_556  S
O1646     Eu1675   2.352   1_564  S
O1646     Eu1672   2.388       .  S
O1647     Eu1674   2.350   1_556  S
C1648      C1884   1.520       .  S
C1649      C1758   1.526       .  S
C1650      C1789   1.477       .  S
C1651      C1803   1.480       .  S
H1652      O1653   0.951       .  S
O1653     Eu1674   2.356       .  S
H1654      O1655   0.969       .  S
O1655     Eu1675   2.356   1_565  S
O1656      C1679   1.306       .  A
O1657      C1680   1.315       .  A
O1657     Eu1673   2.585       .  S
O1658      C1681   1.275       .  A
O1658     Eu1674   2.391   1_545  S
O1659      C1682   1.288       .  A
O1659     Eu1675   2.447   1_554  S
O1660      C1683   1.289       .  A
O1661      C1684   1.295       .  A
O1662      C1685   1.275       .  A
O1663      C1686   1.280       .  A
O1663     Eu1676   2.411   1_556  S
O1664      C1685   1.291       .  A
O1665      C1686   1.282       .  A
O1666      C1681   1.316       .  A
O1667      C1684   1.307       .  A
O1668      C1683   1.309       .  A
O1668     Eu1673   2.557   1_655  S
O1669      C1682   1.309   1_565  A
O1669     Eu1672   2.552       .  S
O1670      C1679   1.290       .  A
O1670     Eu1676   2.450       .  S
O1671      C1680   1.286       .  A
O1671     Eu1676   2.435   1_456  S
Eu1673     O1677   2.387   1_455  S
Eu1676     O1677   2.337   1_554  S
Eu1676     O1690   2.347       .  S
C1679      C1772   1.512       .  S
C1680      C1873   1.515       .  S
C1681      C1733   1.520       .  S
C1682      C1747   1.520       .  S
C1683      C1845   1.517       .  S
C1684      C1856   1.521       .  S
C1685      C1828   1.444       .  S
C1686      C1817   1.453       .  S
H1687      O1688   0.959       .  S
H1689      O1690   0.968       .  S
N1691      H1723   1.041       .  S
N1691      C1696   1.353   1_556  A
N1691      C1695   1.347       .  A
N1692      C1699   1.337       .  A
N1692      C1700   1.348       .  A
N1693      H1724   1.045   1_556  S
N1693      C1698   1.342   1_556  A
N1693      C1697   1.344       .  A
N1694      C1701   1.334       .  A
N1694      C1702   1.338       .  A
C1695      C1703   1.389       .  A
C1695      C1711   1.401       .  A
C1696      C1712   1.397       .  A
C1696      C1704   1.382   1_554  A
C1697      C1705   1.375       .  A
C1697      C1714   1.386       .  A
C1698      C1713   1.409       .  A
C1698      C1706   1.394   1_554  A
C1699      C1711   1.394       .  A
C1699      C1707   1.382       .  A
C1700      C1714   1.403       .  A
C1700      C1708   1.384       .  A
C1701      C1709   1.391       .  A
C1701      C1712   1.401       .  A
C1702      C1710   1.381       .  A
C1702      C1713   1.389       .  A
C1703      C1704   1.367       .  A
C1703      H1715   1.081       .  S
C1704      H1716   1.083   1_556  S
C1705      C1706   1.370       .  A
C1705      H1717   1.083       .  S
C1706      H1718   1.074       .  S
C1707      C1708   1.371       .  A
C1707      H1719   1.078       .  S
C1708      H1720   1.079       .  S
C1709      C1710   1.371       .  A
C1709      H1721   1.076       .  S
C1710      H1722   1.083       .  S
C1711      C1814   1.454       .  S
C1712      C1831   1.487       .  S
C1713      C1786   1.460       .  S
C1714      C1800   1.495       .  S
C1725      C1761   1.576       .  S
C1725      C1775   1.610       .  S
C1725      C2010   1.593       .  S
C1726      C1730   1.636   1_565  S
C1726      C1744   1.621       .  S
C1726      C2041   1.584       .  S
C1727      C1870   1.602       .  S
C1727      C1887   1.615       .  S
C1727      C1912   1.588       .  S
C1728      C1943   1.602       .  S
C1729      C1734   1.402       .  A
C1729      H1736   1.075       .  S
C1730      C1731   1.457   1_545  A
C1731      C1732   1.420       .  A
C1731      N1738   1.421       .  S
C1732      C1733   1.393   1_565  A
C1732      H1737   1.084       .  S
C1734      N1735   1.438       .  S
N1735      O1739   1.260       .  A
N1738      O1742   1.263       .  A
C1743      C1744   1.418       .  A
C1743      C1748   1.409       .  A
C1743      H1750   1.075       .  S
C1744      C1745   1.439   1_565  A
C1745      C1746   1.416       .  A
C1745      N1752   1.415   1_545  S
C1746      C1747   1.394       .  A
C1746      H1751   1.084       .  S
C1747      C1748   1.418   1_545  A
C1748      N1749   1.426       .  S
N1749      O1753   1.260       .  A
N1752      O1755   1.263       .  A
C1757      C1762   1.420       .  A
C1757      H1764   1.083       .  S
C1758      C1759   1.434       .  A
C1759      C1760   1.404       .  A
C1759      N1766   1.426       .  S
C1760      H1765   1.078       .  S
C1761      C1762   1.440       .  A
C1762      N1763   1.430       .  S
N1763      O1767   1.257       .  A
N1763      O1768   1.261       .  A
N1766      O1770   1.259       .  A
N1766      O1769   1.261   1_655  A
C1771      C1772   1.402       .  A
C1771      C1776   1.409       .  A
C1771      H1778   1.085       .  S
C1773      C1774   1.425       .  A
C1773      N1780   1.444       .  S
C1774      C1775   1.435       .  A
C1774      H1779   1.079       .  S
C1776      N1777   1.423       .  S
N1777      O1781   1.263       .  A
N1777      O1782   1.263       .  A
N1780      O1784   1.262       .  A
N1780      O1783   1.261       .  A
C1785      C1786   1.379       .  A
C1785      C1790   1.383       .  A
C1785      H1792   1.084       .  S
C1786      C1787   1.402       .  A
C1787      C1788   1.401       .  A
C1787      N1794   1.431       .  S
C1788      C1789   1.409       .  A
C1788      H1793   1.078       .  S
C1789      C1790   1.415       .  A
C1790      N1791   1.415       .  S
N1791      O1795   1.258       .  A
N1791      O1796   1.260       .  A
N1794      O1798   1.261       .  A
N1794      O1797   1.261       .  A
C1799      C1800   1.406       .  A
C1799      C1804   1.391       .  A
C1799      H1806   1.069       .  S
C1800      C1801   1.413       .  A
C1801      C1802   1.395       .  A
C1801      N1808   1.437       .  S
C1802      C1803   1.409       .  A
C1802      H1807   1.077       .  S
C1803      C1804   1.403       .  A
C1804      N1805   1.428       .  S
N1805      O1809   1.259       .  A
N1805      O1810   1.261       .  A
N1808      O1812   1.262       .  A
N1808      O1811   1.261   1_556  A
C1813      C1814   1.383       .  A
C1813      C1818   1.385       .  A
C1813      H1820   1.085       .  S
C1814      C1815   1.411       .  A
C1815      C1816   1.391       .  A
C1815      N1822   1.420       .  S
C1816      C1817   1.393       .  A
C1816      H1821   1.084   1_556  S
C1817      C1818   1.409       .  A
C1818      N1819   1.411       .  S
N1819      O1823   1.260       .  A
N1819      O1824   1.260       .  A
N1822      O1826   1.260       .  A
N1822      O1825   1.262       .  A
C1827      C1828   1.384   1_556  A
C1827      C1832   1.385   1_556  A
C1827      H1834   1.085       .  S
C1828      C1829   1.402       .  A
C1829      C1830   1.392       .  A
C1829      N1836   1.426       .  S
C1830      C1831   1.400       .  A
C1830      H1835   1.077       .  S
C1831      C1832   1.431       .  A
C1832      N1833   1.433   1_554  S
N1833      O1837   1.263       .  A
N1833      O1838   1.261       .  A
N1836      O1840   1.261       .  A
N1836      O1839   1.261       .  A
C1841      H1848   1.069       .  S
C1842      C1843   1.430       .  A
C1843      C1844   1.412       .  A
C1843      N1850   1.426       .  S
C1844      C1845   1.410       .  A
C1844      H1849   1.084       .  S
C1845      C1846   1.413       .  A
C1846      N1847   1.438       .  S
N1847      O1852   1.263       .  A
N1850      O1854   1.261       .  A
C1855      C1856   1.409       .  A
C1855      C1860   1.423       .  A
C1855      H1862   1.084       .  S
C1857      C1858   1.415       .  A
C1857      N1864   1.429       .  S
C1858      H1863   1.076       .  S
C1859      C1860   1.437       .  A
C1860      N1861   1.431       .  S
N1861      O1865   1.261       .  A
N1864      O1868   1.262       .  A
C1869      C1874   1.407       .  A
C1869      H1876   1.084       .  S
C1870      C1871   1.448       .  A
C1871      C1872   1.423       .  A
C1871      N1878   1.431       .  S
C1872      H1877   1.084       .  S
C1873      C1874   1.416   1_455  A
C1874      N1875   1.415       .  S
N1875      O1879   1.261       .  A
N1875      O1880   1.259       .  A
N1878      O1882   1.261       .  A
N1878      O1881   1.261       .  A
C1883      C1888   1.418       .  A
C1883      H1890   1.084       .  S
C1884      C1885   1.414   1_455  A
C1885      C1886   1.424       .  A
C1885      N1892   1.435       .  S
C1886      H1891   1.076       .  S
C1887      C1888   1.434       .  A
C1888      N1889   1.429       .  S
N1889      O1893   1.262       .  A
N1889      O1894   1.262       .  A
N1892      O1896   1.263       .  A
N1892      O1895   1.262       .  A
C1897      C1898   1.434       .  A
C1897      C1902   1.423       .  A
C1897      H1904   1.070       .  S
C1898      C1899   1.435       .  A
C1899      C1900   1.421       .  A
C1899      N1906   1.431       .  S
C1900      C1901   1.413       .  A
C1900      H1905   1.083       .  S
C1901      C1902   1.409       .  A
C1902      N1903   1.431       .  S
N1903      O1907   1.262       .  A
N1903      O1908   1.260       .  A
N1906      O1910   1.260   1_655  A
N1906      O1909   1.262   1_655  A
C1911      C1912   1.425       .  A
C1911      C1916   1.408       .  A
C1911      H1918   1.075       .  S
C1912      C1913   1.431       .  A
C1913      C1914   1.405       .  A
C1913      N1920   1.424       .  S
C1914      C1915   1.396       .  A
C1914      H1919   1.085       .  S
C1915      C1916   1.403       .  A
C1916      N1917   1.428       .  S
N1917      O1921   1.262       .  A
N1917      O1922   1.262       .  A
N1920      O1924   1.262       .  A
N1920      O1923   1.261       .  A
C1925      C1926   1.410       .  A
C1925      C1930   1.416       .  A
C1925      H1932   1.084       .  S
C1926      C1927   1.407       .  A
C1927      C1928   1.417       .  A
C1927      N1934   1.427       .  S
C1928      C1929   1.424       .  A
C1928      H1933   1.075       .  S
C1929      C1930   1.438       .  A
C1930      N1931   1.435       .  S
N1931      O1935   1.262       .  A
N1931      O1936   1.262       .  A
N1934      O1938   1.262       .  A
N1934      O1937   1.261       .  A
C1939      C1940   1.416       .  A
C1939      C1944   1.423       .  A
C1939      H1946   1.084       .  S
C1940      C1941   1.401       .  A
C1941      C1942   1.410       .  A
C1941      N1948   1.423       .  S
C1942      C1943   1.425       .  A
C1942      H1947   1.073       .  S
C1943      C1944   1.433       .  A
C1944      N1945   1.434       .  S
N1945      O1949   1.262       .  A
N1945      O1950   1.261       .  A
N1948      O1952   1.258       .  A
N1948      O1951   1.260       .  A
C1953      C1954   1.407       .  A
C1953      C1958   1.395       .  A
C1953      H1960   1.084       .  S
C1954      C1955   1.397       .  A
C1955      C1956   1.382       .  A
C1955      N1962   1.432       .  S
C1956      C1957   1.397       .  A
C1956      H1961   1.084       .  S
C1957      C1958   1.404       .  A
C1958      N1959   1.427       .  S
N1959      O1963   1.262       .  A
N1959      O1964   1.262       .  A
N1962      O1966   1.261       .  A
N1962      O1965   1.259       .  A
C1967      C1968   1.407       .  A
C1967      C1972   1.387       .  A
C1967      H1974   1.078       .  S
C1968      C1969   1.415       .  A
C1969      C1970   1.394       .  A
C1969      N1976   1.426       .  S
C1970      C1971   1.399       .  A
C1970      H1975   1.083       .  S
C1971      C1972   1.396       .  A
C1972      N1973   1.433       .  S
N1973      O1977   1.261       .  A
N1973      O1978   1.262       .  A
N1976      O1980   1.259       .  A
N1976      O1979   1.262       .  A
C1981      C1982   1.388       .  A
C1981      C1986   1.393       .  A
C1981      H1988   1.080       .  S
C1982      C1983   1.412       .  A
C1983      C1984   1.389       .  A
C1983      N1990   1.428       .  S
C1984      C1985   1.396       .  A
C1984      H1989   1.084       .  S
C1985      C1986   1.410       .  A
C1986      N1987   1.427       .  S
N1987      O1991   1.256       .  A
N1987      O1992   1.261       .  A
N1990      O1994   1.260       .  A
N1990      O1993   1.261       .  A
C1995      C1996   1.403       .  A
C1995      C2000   1.388       .  A
C1995      H2002   1.084       .  S
C1996      C1997   1.393       .  A
C1997      C1998   1.392       .  A
C1997      N2004   1.426       .  S
C1998      C1999   1.404       .  A
C1998      H2003   1.084       .  S
C1999      C2000   1.405       .  A
C2000      N2001   1.429       .  S
N2001      O2005   1.262       .  A
N2001      O2006   1.262       .  A
N2004      O2008   1.261       .  A
N2004      O2007   1.261       .  A
C2009      C2010   1.406       .  A
C2009      C2014   1.408       .  A
C2009      H2016   1.079       .  S
C2010      C2011   1.437       .  A
C2011      C2012   1.418       .  A
C2011      N2018   1.427       .  S
C2012      C2013   1.401       .  A
C2012      H2017   1.083       .  S
C2013      C2014   1.437       .  A
C2014      N2015   1.433       .  S
N2015      O2019   1.261       .  A
N2015      O2020   1.261       .  A
N2018      O2022   1.261       .  A
N2018      O2021   1.262       .  A
C2023      C2024   1.395       .  A
C2023      C2028   1.412       .  A
C2023      H2030   1.084       .  S
C2024      C2025   1.410       .  A
C2025      C2026   1.404       .  A
C2025      N2032   1.429       .  S
C2026      C2027   1.414       .  A
C2026      H2031   1.081       .  S
C2027      C2028   1.456       .  A
C2028      N2029   1.439       .  S
N2029      O2033   1.261       .  A
N2029      O2034   1.260       .  A
N2032      O2036   1.262       .  A
N2032      O2035   1.262       .  A
C2037      C2038   1.402       .  A
C2037      C2042   1.421       .  A
C2037      H2044   1.083       .  S
C2038      C2039   1.417       .  A
C2039      C2040   1.397       .  A
C2039      N2046   1.432       .  S
C2040      C2041   1.396       .  A
C2040      H2045   1.071       .  S
C2041      C2042   1.438       .  A
C2042      N2043   1.425       .  S
N2043      O2047   1.262       .  A
N2043      O2048   1.262       .  A
N2046      O2050   1.261       .  A
N2046      O2049   1.262       .  A
C2051      C2052   1.407       .  A
C2051      C2056   1.408       .  A
C2051      H2058   1.084       .  S
C2052      C2053   1.400       .  A
C2053      C2054   1.412       .  A
C2053      N2060   1.427       .  S
C2054      C2055   1.431       .  A
C2054      H2059   1.069       .  S
C2055      C2056   1.458       .  A
C2056      N2057   1.441       .  S
N2057      O2061   1.259       .  A
N2057      O2062   1.264       .  A
N2060      O2064   1.262       .  A
N2060      O2063   1.262       .  A
