geometry optimzed in LAMMPS
_audit_creation_date              2020-12-01 
_audit_creation_method            'lammps2cif' 
_symmetry_space_group_name_H-M    'P1' 
_symmetry_Int_Tables_number       1 
_symmetry_cell_setting            triclinic 
loop_ 
_symmetry_equiv_pos_as_xyz 
  x,y,z 
_cell_length_a                    45.33565966 
_cell_length_b                    45.59263075359985 
_cell_length_c                    49.627781336295165 
_cell_angle_alpha                 89.83332000421635 
_cell_angle_beta                  89.8451980279502 
_cell_angle_gamma                 89.87074574533789 
loop_ 
_atom_site_label 
_atom_site_type_symbol 
_atom_site_fract_x 
_atom_site_fract_y 
_atom_site_fract_z 
_atom_site_charge 
O1          O  0.02460635  0.95981734  0.76195871    -0.74500
O2          O  0.98289739  0.03325090  0.76771477    -0.74500
O3          O  0.96687728  0.97569792  0.76414577    -0.74600
O4          O  0.04047518  0.01702890  0.76595891    -0.74600
O5          O  0.03949267  0.02144629  0.72125468    -0.74600
O6          O  0.96628358  0.97917826  0.71937742    -0.74500
O7          O  0.98172300  0.03665879  0.72295017    -0.74500
O8          O  0.02423550  0.96411620  0.71724563    -0.74600
Ni9        Ni  0.00368288  0.99631463  0.76653609     1.25400
Ni10       Ni  0.00287387  0.00047538  0.71864050     1.25400
C11         C  0.03155551  0.94997369  0.73856728     0.87700
C12         C  0.97566395  0.04723304  0.74621532     0.87600
C13         C  0.95455508  0.97027090  0.74148749     0.87600
C14         C  0.05213115  0.02615241  0.74393644     0.87800
O15         O  0.02327995  0.97100579  0.22604846    -0.74500
O16         O  0.98043724  0.04366936  0.23140812    -0.74500
O17         O  0.03835064  0.02839042  0.22962483    -0.74600
O18         O  0.96558077  0.98616377  0.22737725    -0.74600
O19         O  0.96557306  0.98207545  0.27211596    -0.74600
O20         O  0.03878685  0.02473899  0.27438771    -0.74500
O21         O  0.98055583  0.03950537  0.27614386    -0.74500
O22         O  0.02362416  0.96739360  0.27082252    -0.74600
Ni23       Ni  0.00189105  0.00747608  0.22705208     1.25400
Ni24       Ni  0.00214991  0.00333625  0.27496757     1.25400
C25         C  0.03046449  0.95716245  0.24760955     0.87700
C26         C  0.97326957  0.05350068  0.25473635     0.87600
C27         C  0.05081366  0.03333792  0.25228188     0.87600
C28         C  0.95358930  0.97694455  0.24920134     0.87800
N29         N  0.24521373  0.39880530  0.00217433    -0.36700
N30         N  0.23531249  0.44401400  0.04264860    -0.57200
N31         N  0.23132211  0.48748858  0.00001099    -0.36700
N32         N  0.23734275  0.44162700  0.95959321    -0.57200
C33         C  0.24098105  0.38235466  0.02455405     0.26900
C34         C  0.24156794  0.38095763  0.98070007     0.26900
C35         C  0.22199642  0.50339732  0.02139296     0.26900
C36         C  0.22325140  0.50225443  0.97753271     0.26900
C37         C  0.24458444  0.42192982  0.05873871     0.35500
C38         C  0.23661296  0.46868776  0.05761050     0.35500
C39         C  0.24627071  0.41851471  0.94462405     0.35500
C40         C  0.23939751  0.46550743  0.94352105     0.35500
C41         C  0.23462894  0.35371782  0.01723793    -0.22000
C42         C  0.23499460  0.35283718  0.98954932    -0.22000
C43         C  0.20801414  0.52864690  0.01242393    -0.22000
C44         C  0.20875284  0.52790688  0.98472492    -0.22000
C45         C  0.25174100  0.43264026  0.08402556    -0.23000
C46         C  0.24646263  0.46226211  0.08335772    -0.23000
C47         C  0.25398755  0.42774790  0.91892151    -0.23000
C48         C  0.24958791  0.45753050  0.91821429    -0.23000
C49         C  0.24485779  0.39203298  0.05135947    -0.18400
C50         C  0.24581935  0.38901222  0.95342571    -0.18400
C51         C  0.23012599  0.49403028  0.95077894    -0.18400
C52         C  0.22758814  0.49669103  0.04871559    -0.18400
H53         H  0.23042579  0.33528956  0.03048943     0.14500
H54         H  0.23109949  0.33360734  0.97733835     0.14500
H55         H  0.19851580  0.54594830  0.02458243     0.14500
H56         H  0.19986464  0.54453708  0.97140545     0.14500
H57         H  0.25976232  0.42043564  0.10125040     0.12800
H58         H  0.24954269  0.47733785  0.09991638     0.12800
H59         H  0.26179236  0.41443673  0.90233988     0.12800
H60         H  0.25324821  0.47165541  0.90096745     0.12800
H61         H  0.25367916  0.41996541  0.00171132     0.26100
H62         H  0.24537822  0.46947777  0.00070543     0.26100
C63         C  0.67043640  0.81699391  0.73366462     0.86400
C64         C  0.70022055  0.83232143  0.72982574    -0.53800
C65         C  0.71560680  0.83636970  0.75317347     0.09300
C66         C  0.69970798  0.82437150  0.77836831     0.20300
C67         C  0.67759515  0.78828534  0.74882717    -0.54500
C68         C  0.69292547  0.79209860  0.77216720     0.09400
C69         C  0.65398086  0.83546070  0.75496146    -0.54100
C70         C  0.66929169  0.83925875  0.77838647     0.10000
H71         H  0.70805351  0.83990990  0.71032419     0.14500
H72         H  0.71212240  0.82754908  0.79735987     0.00300
H73         H  0.67025243  0.76680364  0.74247429     0.14800
H74         H  0.63162333  0.84352370  0.75231375     0.14600
C75         C  0.67372394  0.81015012  0.26677473     0.86400
C76         C  0.65751562  0.83163851  0.24808719    -0.53800
C77         C  0.67335385  0.84030784  0.22607477     0.09300
C78         C  0.70445699  0.82691957  0.22485380     0.20300
C79         C  0.68355184  0.78483573  0.24814951    -0.54500
C80         C  0.69945115  0.79364483  0.22614043     0.09400
C81         C  0.70279157  0.82576168  0.27391787    -0.54100
C82         C  0.71887151  0.83480650  0.25196352     0.10000
H83         H  0.63485706  0.83847713  0.25157009     0.14500
H84         H  0.71730839  0.83397886  0.20695088     0.00300
H85         H  0.67919807  0.76186061  0.25185782     0.14800
H86         H  0.70960465  0.82983201  0.29452014     0.14600
C87         C  0.34010033  0.17950547  0.25532070     0.86400
C88         C  0.35725334  0.15874248  0.23659276    -0.53800
C89         C  0.34277147  0.15173159  0.21351952     0.09300
C90         C  0.31196352  0.16556540  0.21133001     0.20300
C91         C  0.33173883  0.20593039  0.23737714    -0.54500
C92         C  0.31700547  0.19875947  0.21422027     0.09400
C93         C  0.31044119  0.16367924  0.26036542    -0.54100
C94         C  0.29563656  0.15662946  0.23726034     0.10000
H95         H  0.37959598  0.15131920  0.24066867     0.14500
H96         H  0.30010542  0.15871535  0.19293092     0.00300
H97         H  0.33780278  0.22823521  0.24247875     0.14800
H98         H  0.30102345  0.15931844  0.28001746     0.14600
C99         C  0.33866376  0.17853551  0.74906477     0.86400
C100        C  0.31141625  0.15968148  0.74319995    -0.53800
C101        C  0.29619004  0.15070821  0.76558460     0.09300
C102        C  0.31019191  0.16138363  0.79212590     0.20300
C103        C  0.32697705  0.20391076  0.76663990    -0.54500
C104        C  0.31230971  0.19489011  0.78926686     0.09400
C105        C  0.35728456  0.16003677  0.76872288    -0.54100
C106        C  0.34250496  0.15092190  0.79131625     0.10000
H107        H  0.30500572  0.15388390  0.72284756     0.14500
H108        H  0.29788960  0.15475867  0.81045678     0.00300
H109        H  0.33148654  0.22688709  0.76305496     0.14800
H110        H  0.38023139  0.15462435  0.76485579     0.14600
O111        O  0.50646842  0.02550379  0.03367375    -0.74500
O112        O  0.55254604  0.99196331  0.97661350    -0.74500
O113        O  0.50749403  0.03065591  0.97945606    -0.74600
O114        O  0.55172570  0.98680353  0.03120504    -0.74600
O115        O  0.51983683  0.94987915  0.02782619    -0.74600
O116        O  0.47518638  0.99409055  0.97612392    -0.74500
O117        O  0.52038743  0.95523707  0.97342108    -0.74500
O118        O  0.47456398  0.98855818  0.03058955    -0.74600
Ni119      Ni  0.53072721  0.00999769  0.00535989     1.25400
Ni120      Ni  0.49635961  0.97061844  0.00187741     1.25400
C121        C  0.48284764  0.01259242  0.04150762     0.87700
C122        C  0.54389048  0.96819555  0.96541506     0.87600
C123        C  0.48406668  0.01973547  0.96924123     0.87600
C124        C  0.54301569  0.96118270  0.03823764     0.87800
N125        N  0.75734766  0.60222263  0.99715800    -0.36700
N126        N  0.76421661  0.55834997  0.03896224    -0.57200
N127        N  0.77418080  0.51337002  0.99786009    -0.36700
N128        N  0.76328844  0.55634387  0.95604496    -0.57200
C129        C  0.74793928  0.61766198  0.01883285     0.26900
C130        C  0.74818730  0.61672743  0.97491227     0.26900
C131        C  0.77240129  0.49653368  0.02020944     0.26900
C132        C  0.77157303  0.49542434  0.97634964     0.26900
C133        C  0.76342994  0.58258440  0.05460027     0.35500
C134        C  0.77336080  0.53610238  0.05495108     0.35500
C135        C  0.76316607  0.58026743  0.93992841     0.35500
C136        C  0.77158108  0.53352364  0.94037594     0.35500
C137        C  0.73295311  0.64248903  0.01021750    -0.22000
C138        C  0.73313069  0.64191879  0.98252504    -0.22000
C139        C  0.76898723  0.46740998  0.01283343    -0.22000
C140        C  0.76846835  0.46671598  0.98513887    -0.22000
C141        C  0.77190224  0.57565672  0.08066636    -0.23000
C142        C  0.77826687  0.54622692  0.08087678    -0.23000
C143        C  0.77117454  0.57253906  0.91389505    -0.23000
C144        C  0.77634319  0.54290430  0.91415552    -0.23000
C145        C  0.75318714  0.61042673  0.04616229    -0.18400
C146        C  0.75410141  0.60863913  0.94789887    -0.18400
C147        C  0.77338492  0.50405516  0.94902784    -0.18400
C148        C  0.77546257  0.50641865  0.04702803    -0.18400
H149        H  0.72286638  0.65928916  0.02257468     0.14500
H150        H  0.72318576  0.65821003  0.96947533     0.14500
H151        H  0.76724822  0.44854837  0.02603811     0.14500
H152        H  0.76627275  0.44724242  0.97288568     0.14500
H153        H  0.77313323  0.59023224  0.09780084     0.12800
H154        H  0.78530641  0.53364921  0.09824444     0.12800
H155        H  0.77288926  0.58670608  0.89643227     0.12800
H156        H  0.78280075  0.52976437  0.89698516     0.12800
H157        H  0.77183598  0.58438460  0.99737449     0.26100
H158        H  0.78022823  0.53548962  0.99737323     0.26100
N159        N  0.39406706  0.75872847  0.50311237    -0.36700
N160        N  0.43707331  0.76943123  0.46049465    -0.57200
N161        N  0.48066936  0.78354293  0.50091606    -0.36700
N162        N  0.43880528  0.76953354  0.54347433    -0.57200
C163        C  0.38011492  0.74756302  0.48136984     0.26900
C164        C  0.38109195  0.74711885  0.52532308     0.26900
C165        C  0.49784090  0.78083775  0.47871274     0.26900
C166        C  0.49859081  0.78134968  0.52255101     0.26900
C167        C  0.41207617  0.76896089  0.44574608     0.35500
C168        C  0.45804979  0.78166453  0.44468103     0.35500
C169        C  0.41478250  0.76792475  0.55957134     0.35500
C170        C  0.46040251  0.78173832  0.55839550     0.35500
C171        C  0.35806872  0.72858513  0.48985065    -0.22000
C172        C  0.35866322  0.72833413  0.51759476    -0.22000
C173        C  0.52696272  0.77670088  0.48635133    -0.22000
C174        C  0.52744287  0.77709798  0.51405747    -0.22000
C175        C  0.41716309  0.78108707  0.42050293    -0.23000
C176        C  0.44634727  0.78910437  0.41982228    -0.23000
C177        C  0.42113659  0.77914314  0.58482616    -0.23000
C178        C  0.45007660  0.78793456  0.58407106    -0.23000
C179        C  0.38542882  0.75576262  0.45422924    -0.18400
C180        C  0.38800681  0.75432908  0.55232145    -0.18400
C181        C  0.48982646  0.78530408  0.54962213    -0.18400
C182        C  0.48806573  0.78406761  0.45183598    -0.18400
H183        H  0.34296529  0.71634860  0.47734209     0.14500
H184        H  0.34412316  0.71585639  0.53059025     0.14500
H185        H  0.54595595  0.77402380  0.47332472     0.14500
H186        H  0.54685649  0.77478877  0.52654176     0.14500
H187        H  0.40158608  0.78365228  0.40417908     0.12800
H188        H  0.45769815  0.79904848  0.40290982     0.12800
H189        H  0.40655174  0.78057026  0.60207538     0.12800
H190        H  0.46220312  0.79742657  0.60063746     0.12800
H191        H  0.40918479  0.77586095  0.50282262     0.26100
H192        H  0.45869077  0.79015518  0.50127760     0.26100
C193        C  0.17499110  0.65955842  0.75706916     0.86400
C194        C  0.15613035  0.64170715  0.73754000    -0.53800
C195        C  0.14840170  0.65621672  0.71457724     0.09300
C196        C  0.16028955  0.68775288  0.71318022     0.20300
C197        C  0.20160455  0.66971633  0.73979064    -0.54500
C198        C  0.19378541  0.68434592  0.71670517     0.09400
C199        C  0.15727413  0.68781993  0.76211241    -0.54100
C200        C  0.14974486  0.70279330  0.73920204     0.10000
H201        H  0.14942641  0.61928833  0.74172966     0.14500
H202        H  0.15386283  0.69974148  0.69462738     0.00300
H203        H  0.22447616  0.66542037  0.74453292     0.14800
H204        H  0.15203383  0.69569921  0.78219497     0.14600
C205        C  0.18078305  0.67089693  0.23679233     0.86400
C206        C  0.16530819  0.70061824  0.23263739    -0.53800
C207        C  0.15865182  0.71511761  0.25602015     0.09300
C208        C  0.16849593  0.69842451  0.28160569     0.20300
C209        C  0.20803055  0.67834871  0.25403300    -0.54500
C210        C  0.20177601  0.69292770  0.27744020     0.09400
C211        C  0.16045982  0.65383436  0.25600947    -0.54100
C212        C  0.15388527  0.66805580  0.27941114     0.10000
H213        H  0.15953771  0.70899705  0.21283949     0.14500
H214        H  0.16315858  0.71012519  0.30052675     0.00300
H215        H  0.23040958  0.67263176  0.24875196     0.14800
H216        H  0.15202651  0.63213740  0.25140767     0.14600
C217        C  0.80837105  0.33277427  0.23699437     0.86400
C218        C  0.82349019  0.30326214  0.23164583    -0.53800
C219        C  0.83301480  0.28892622  0.25430187     0.09300
C220        C  0.82652707  0.30595676  0.28058837     0.20300
C221        C  0.78364825  0.32557406  0.25728880    -0.54500
C222        C  0.79311960  0.31191514  0.28019594     0.09400
C223        C  0.83071994  0.35031781  0.25355155    -0.54100
C224        C  0.84037779  0.33658496  0.27644147     0.10000
H225        H  0.82675253  0.29482941  0.21142304     0.14500
H226        H  0.83389711  0.29447304  0.29909408     0.00300
H227        H  0.76065368  0.33119071  0.25479968     0.14800
H228        H  0.83698232  0.37252586  0.24810239     0.14600
C229        C  0.82005331  0.33165819  0.75886038     0.86400
C230        C  0.83708650  0.34970080  0.73774970    -0.53800
C231        C  0.84292329  0.33522080  0.71424370     0.09300
C232        C  0.83136402  0.30346113  0.71426208     0.20300
C233        C  0.79227995  0.32126799  0.74368560    -0.54500
C234        C  0.79826173  0.30663708  0.72029943     0.09400
C235        C  0.83845360  0.30359471  0.76281827    -0.54100
C236        C  0.84444143  0.28860124  0.73957078     0.10000
H237        H  0.84368484  0.37223767  0.74126105     0.14500
H238        H  0.83565114  0.29165733  0.69519372     0.00300
H239        H  0.76981013  0.32499573  0.75014775     0.14800
H240        H  0.84618605  0.29646248  0.78246075     0.14600
O241        O  0.99040431  0.54509382  0.46484753    -0.74500
O242        O  0.94631539  0.50186831  0.51781484    -0.74500
O243        O  0.98481560  0.54736182  0.51922583    -0.74600
O244        O  0.95187778  0.49940027  0.46353585    -0.74600
O245        O  0.98885483  0.46757734  0.46855587    -0.74600
O246        O  0.02243101  0.51605704  0.52286764    -0.74500
O247        O  0.98402144  0.47088272  0.52272070    -0.74500
O248        O  0.02739564  0.51313966  0.46881979    -0.74600
Ni249      Ni  0.96700876  0.52457054  0.49117044     1.25400
Ni250      Ni  0.00698405  0.49081466  0.49584705     1.25400
C251        C  0.01632790  0.53635757  0.45822419     0.87700
C252        C  0.95794143  0.47931781  0.52910467     0.87600
C253        C  0.00923079  0.53960279  0.53012353     0.87600
C254        C  0.96468003  0.47525328  0.45724083     0.87800
N255        N  0.59711457  0.25170458  0.50307424    -0.36700
N256        N  0.55374707  0.24101338  0.46141361    -0.57200
N257        N  0.50945627  0.22982574  0.50278633    -0.36700
N258        N  0.55425118  0.23662299  0.54435883    -0.57200
C259        C  0.61483449  0.24948255  0.48120953     0.26900
C260        C  0.61454599  0.24931542  0.52500655     0.26900
C261        C  0.49513950  0.22091540  0.48033384     0.26900
C262        C  0.49589243  0.21709444  0.52418318     0.26900
C263        C  0.57596374  0.25191680  0.44614655     0.35500
C264        C  0.52916396  0.24209871  0.44606818     0.35500
C265        C  0.57564392  0.24782801  0.56019702     0.35500
C266        C  0.53001038  0.23395160  0.56006675     0.35500
C267        C  0.64382413  0.24553058  0.48940297    -0.22000
C268        C  0.64365194  0.24562469  0.51708364    -0.22000
C269        C  0.47217232  0.20243019  0.48760308    -0.22000
C270        C  0.47264163  0.20004014  0.51524291    -0.22000
C271        C  0.56552908  0.25995241  0.42099658    -0.23000
C272        C  0.53582337  0.25400910  0.42102032    -0.23000
C273        C  0.56502449  0.25214840  0.58609345    -0.23000
C274        C  0.53612045  0.24319111  0.58605150    -0.23000
C275        C  0.60582287  0.25310719  0.45417034    -0.18400
C276        C  0.60509590  0.25242400  0.55192943    -0.18400
C277        C  0.50299464  0.22164697  0.55162015    -0.18400
C278        C  0.50154710  0.22997889  0.45357311    -0.18400
H279        H  0.66318871  0.24327762  0.47676862     0.14500
H280        H  0.66278569  0.24338770  0.52993429     0.14500
H281        H  0.45669492  0.19165207  0.47437232     0.14500
H282        H  0.45753934  0.18720305  0.52737697     0.14500
H283        H  0.57802958  0.26907235  0.40436962     0.12800
H284        H  0.52096256  0.25764330  0.40431275     0.12800
H285        H  0.57692850  0.26054535  0.60328784     0.12800
H286        H  0.52130117  0.24345212  0.60318511     0.12800
H287        H  0.57510458  0.25815379  0.50314723     0.26100
H288        H  0.52551137  0.24605087  0.50361454     0.26100
C289        C  0.94107812  0.46278712  0.54976088    -0.03300
C290        C  0.91057744  0.46722470  0.55290496    -0.05900
C291        C  0.89473430  0.45167240  0.57249063    -0.21000
C292        C  0.90895426  0.43130497  0.58931829     0.24800
C293        C  0.93955041  0.42702462  0.58631399    -0.18500
C294        C  0.95536913  0.44248749  0.56666174    -0.08500
C295        C  0.89159694  0.41636876  0.61081334    -0.18800
C296        C  0.89969771  0.39071166  0.62218770    -0.23600
C297        C  0.88360365  0.37689294  0.64508411     0.26800
C298        C  0.88680371  0.34665806  0.64954586    -0.20300
C299        C  0.87351025  0.33314698  0.67179997    -0.10000
C300        C  0.85693094  0.34959983  0.69036586    -0.10500
C301        C  0.85353681  0.37990665  0.68574705    -0.03400
C302        C  0.86678462  0.39341526  0.66346946    -0.18600
H303        H  0.89891029  0.48267831  0.54017670     0.10500
H304        H  0.87125783  0.45559403  0.57452785     0.10600
H305        H  0.95154413  0.41234032  0.59949680     0.10300
H306        H  0.97892299  0.43888132  0.56500283     0.11400
H307        H  0.87108869  0.42670092  0.61700386     0.11500
H308        H  0.91859019  0.37891302  0.61418381     0.13400
H309        H  0.89983643  0.33343747  0.63583963     0.09900
H310        H  0.87687557  0.30992057  0.67463993     0.12000
H311        H  0.84048925  0.39331313  0.69924035     0.08600
H312        H  0.86436067  0.41689181  0.66116605     0.11300
C313        C  0.62738397  0.26099037  0.57219597    -0.03300
C314        C  0.63940535  0.28928001  0.57145895    -0.05900
C315        C  0.66065155  0.29759038  0.59024360    -0.21000
C316        C  0.67056674  0.27762627  0.60981635     0.24800
C317        C  0.65843661  0.24919951  0.61048845    -0.18500
C318        C  0.63703609  0.24096388  0.59175849    -0.08500
C319        C  0.69259343  0.28762003  0.62982881    -0.18800
C320        C  0.71097900  0.26923363  0.64284746    -0.23600
C321        C  0.73279455  0.27925413  0.66303819     0.26800
C322        C  0.75804583  0.26213575  0.66761365    -0.20300
C323        C  0.77906237  0.27077890  0.68651362    -0.10000
C324        C  0.77508982  0.29661207  0.70141686    -0.10500
C325        C  0.74947672  0.31343688  0.69730942    -0.03400
C326        C  0.72849540  0.30483792  0.67836203    -0.18600
H327        H  0.63219075  0.30493615  0.55638084     0.10500
H328        H  0.66948436  0.31963480  0.58940903     0.10600
H329        H  0.66490203  0.23347497  0.62573549     0.10300
H330        H  0.62794304  0.21902792  0.59251108     0.11400
H331        H  0.69450512  0.31109051  0.63298260     0.11500
H332        H  0.71114304  0.24611592  0.63768571     0.13400
H333        H  0.76166192  0.24213693  0.65633009     0.09900
H334        H  0.79832579  0.25710447  0.68957251     0.12000
H335        H  0.74590072  0.33359456  0.70833463     0.08600
H336        H  0.70886594  0.31812335  0.67602325     0.11300
C337        C  0.85917918  0.35180378  0.29664743    -0.03300
C338        C  0.87846765  0.37440328  0.28864543    -0.05900
C339        C  0.89297330  0.39144975  0.30780830    -0.21000
C340        C  0.88923805  0.38582075  0.33536139     0.24800
C341        C  0.87107598  0.36243507  0.34346848    -0.18500
C342        C  0.85609964  0.34569163  0.32430278    -0.08500
C343        C  0.90279882  0.40596467  0.35513544    -0.18800
C344        C  0.91214600  0.39709540  0.37950770    -0.23600
C345        C  0.92546064  0.41760917  0.39905696     0.26800
C346        C  0.94889542  0.40795846  0.41516017    -0.20300
C347        C  0.96190424  0.42685972  0.43374618    -0.10000
C348        C  0.95124964  0.45563120  0.43702350    -0.10500
C349        C  0.92729654  0.46508277  0.42129074    -0.03400
C350        C  0.91460962  0.44629595  0.40236597    -0.18600
H351        H  0.88197221  0.37938865  0.26755073     0.10500
H352        H  0.90694868  0.40929553  0.30109705     0.10600
H353        H  0.86727113  0.35795651  0.36462419     0.10300
H354        H  0.84103071  0.32897147  0.33134739     0.11400
H355        H  0.90623212  0.42860935  0.34900187     0.11500
H356        H  0.91164155  0.37393415  0.38468425     0.13400
H357        H  0.95739188  0.38584801  0.41309863     0.09900
H358        H  0.98012237  0.41880037  0.44576101     0.12000
H359        H  0.91839456  0.48700113  0.42355723     0.08600
H360        H  0.89601751  0.45403481  0.39066312     0.11300
C361        C  0.62908589  0.25780755  0.43342202    -0.03300
C362        C  0.63550808  0.23584602  0.41456369    -0.05900
C363        C  0.65887918  0.23932675  0.39635798    -0.21000
C364        C  0.67605024  0.26494276  0.39646235     0.24800
C365        C  0.66970013  0.28681921  0.41564762    -0.18500
C366        C  0.64637788  0.28328111  0.43386359    -0.08500
C367        C  0.70042383  0.26794591  0.37645569    -0.18800
C368        C  0.71059970  0.29413702  0.36797581    -0.23600
C369        C  0.73288415  0.29785051  0.34620554     0.26800
C370        C  0.73301939  0.32438464  0.33187596    -0.20300
C371        C  0.75276608  0.32885933  0.31070696    -0.10000
C372        C  0.77316217  0.30700229  0.30349608    -0.10500
C373        C  0.77401515  0.28083714  0.31843205    -0.03400
C374        C  0.75390775  0.27617779  0.33956868    -0.18600
H375        H  0.62271716  0.21581456  0.41427198     0.10500
H376        H  0.66346532  0.22201557  0.38203194     0.10600
H377        H  0.68298799  0.30641418  0.41709033     0.10300
H378        H  0.64207812  0.30019808  0.44865341     0.11400
H379        H  0.70856296  0.24805375  0.36701820     0.11500
H380        H  0.70045229  0.31401920  0.37564455     0.13400
H381        H  0.71741712  0.34160764  0.33678732     0.09900
H382        H  0.75213828  0.34957141  0.29997696     0.12000
H383        H  0.78975637  0.26380209  0.31338392     0.08600
H384        H  0.75504726  0.25578564  0.35071093     0.11300
C385        C  0.13395603  0.65529465  0.30015922    -0.03300
C386        C  0.10812049  0.64056679  0.29248227    -0.05900
C387        C  0.08960640  0.62798047  0.31190202    -0.21000
C388        C  0.09682503  0.62930016  0.33934083     0.24800
C389        C  0.12251466  0.64431775  0.34706994    -0.18500
C390        C  0.14079590  0.65725831  0.32764403    -0.08500
C391        C  0.07708636  0.61497455  0.35937409    -0.18800
C392        C  0.08732640  0.60248691  0.38211975    -0.23600
C393        C  0.06830812  0.58584266  0.40113394     0.26800
C394        C  0.08037234  0.56166810  0.41473210    -0.20300
C395        C  0.06336644  0.54545308  0.43293481    -0.10000
C396        C  0.03395885  0.55337131  0.43836305    -0.10500
C397        C  0.02194971  0.57792200  0.42502572    -0.03400
C398        C  0.03891325  0.59393986  0.40648269    -0.18600
H399        H  0.10211868  0.63898124  0.27143042     0.10500
H400        H  0.06984251  0.61672758  0.30544044     0.10600
H401        H  0.12840544  0.64630434  0.36810463     0.10300
H402        H  0.16059962  0.66816269  0.33414224     0.11400
H403        H  0.05395885  0.61252240  0.35418714     0.11500
H404        H  0.11092089  0.60226401  0.38586826     0.13400
H405        H  0.10300787  0.55511454  0.41104190     0.09900
H406        H  0.07339932  0.52680835  0.44292807     0.12000
H407        H  0.99946730  0.58479250  0.42893832     0.08600
H408        H  0.02921121  0.61291600  0.39675723     0.11300
C409        C  0.02267338  0.55783261  0.55132094    -0.03300
C410        C  0.00757089  0.58188810  0.56248334    -0.05900
C411        C  0.02060762  0.59857268  0.58286173    -0.21000
C412        C  0.04879962  0.59136877  0.59247403     0.24800
C413        C  0.06416040  0.56782924  0.58068006    -0.18500
C414        C  0.05114827  0.55114323  0.56054950    -0.08500
C415        C  0.06222608  0.60906699  0.61423153    -0.18800
C416        C  0.08199736  0.59738545  0.63140597    -0.23600
C417        C  0.09838052  0.61374241  0.65237351     0.26800
C418        C  0.11919412  0.59807964  0.66757252    -0.20300
C419        C  0.13562810  0.61196758  0.68742201    -0.10000
C420        C  0.13152228  0.64193349  0.69274146    -0.10500
C421        C  0.11108625  0.65787038  0.67734367    -0.03400
C422        C  0.09459304  0.64394577  0.65732260    -0.18600
H423        H  0.98564954  0.58766250  0.55563757     0.10500
H424        H  0.00853547  0.61688325  0.59136828     0.10600
H425        H  0.08647223  0.56242716  0.58660135     0.10300
H426        H  0.06360109  0.53308363  0.55205591     0.11400
H427        H  0.05527385  0.63171504  0.61604599     0.11500
H428        H  0.08678145  0.57409223  0.63002976     0.13400
H429        H  0.12290065  0.57492001  0.66401751     0.09900
H430        H  0.15176454  0.59920109  0.69845317     0.12000
H431        H  0.10737775  0.68095770  0.68114046     0.08600
H432        H  0.07898564  0.65701451  0.64608153     0.11300
C433        C  0.22517766  0.70252703  0.29663756    -0.03300
C434        C  0.25387739  0.70883693  0.28743057    -0.05900
C435        C  0.27621056  0.71620845  0.30552596    -0.21000
C436        C  0.27048669  0.71784554  0.33326587     0.24800
C437        C  0.24167310  0.71212336  0.34250819    -0.18500
C438        C  0.21930992  0.70483459  0.32436895    -0.08500
C439        C  0.29543023  0.72429820  0.35178687    -0.18800
C440        C  0.29192137  0.73371032  0.37731597    -0.23600
C441        C  0.31681922  0.73951973  0.39604975     0.26800
C442        C  0.31149664  0.75711683  0.41872657    -0.20300
C443        C  0.33382833  0.76251999  0.43738904    -0.10000
C444        C  0.36195237  0.75019665  0.43394032    -0.10500
C445        C  0.36741164  0.73242198  0.41139813    -0.03400
C446        C  0.34508449  0.72708814  0.39261164    -0.18600
H447        H  0.25922526  0.70823763  0.26618361     0.10500
H448        H  0.29813254  0.72059091  0.29778164     0.10600
H449        H  0.23630730  0.71239040  0.36373654     0.10300
H450        H  0.19768526  0.70029906  0.33237140     0.11400
H451        H  0.31751420  0.72201437  0.34358765     0.11500
H452        H  0.26992543  0.73846536  0.38477073     0.13400
H453        H  0.28993537  0.76677029  0.42202013     0.09900
H454        H  0.32916537  0.77628459  0.45464347     0.12000
H455        H  0.38888782  0.72243085  0.40853074     0.08600
H456        H  0.34995118  0.71267956  0.37591563     0.11300
C457        C  0.36677778  0.74641603  0.57411432    -0.03300
C458        C  0.37498839  0.72664216  0.59451688    -0.05900
C459        C  0.35530635  0.71966661  0.61531627    -0.21000
C460        C  0.32690135  0.73199349  0.61593758     0.24800
C461        C  0.31888246  0.75218665  0.59568720    -0.18500
C462        C  0.33862515  0.75922351  0.57493462    -0.08500
C463        C  0.30641083  0.72363148  0.63812596    -0.18800
C464        C  0.27684580  0.72394147  0.63540289    -0.23600
C465        C  0.25613563  0.71412993  0.65686232     0.26800
C466        C  0.22840412  0.70338655  0.64930556    -0.20300
C467        C  0.20829804  0.69370664  0.66874394    -0.10000
C468        C  0.21533814  0.69487639  0.69626609    -0.10500
C469        C  0.24286403  0.70617455  0.70394557    -0.03400
C470        C  0.26307094  0.71577641  0.68445069    -0.18600
H471        H  0.39668935  0.71665606  0.59431447     0.10500
H472        H  0.36215270  0.70430233  0.63078531     0.10600
H473        H  0.29758739  0.76293195  0.59601093     0.10300
H474        H  0.33207699  0.77490020  0.55962798     0.11400
H475        H  0.31607158  0.71508280  0.65654725     0.11500
H476        H  0.26733135  0.72969406  0.61603977     0.13400
H477        H  0.22244521  0.70202369  0.62822007     0.09900
H478        H  0.18745671  0.68475200  0.66211405     0.12000
H479        H  0.24861550  0.70796348  0.72503592     0.08600
H480        H  0.28383790  0.72486586  0.69107109     0.11300
C481        C  0.79973725  0.34904220  0.21121192    -0.03300
C482        C  0.77059514  0.35791212  0.20535736    -0.05900
C483        C  0.76448436  0.37500260  0.18264194    -0.21000
C484        C  0.78712741  0.38379357  0.16518097     0.24800
C485        C  0.81597615  0.37373199  0.17006715    -0.18500
C486        C  0.82213349  0.35667782  0.19279440    -0.08500
C487        C  0.77969962  0.40357650  0.14234293    -0.18800
C488        C  0.79957513  0.42124998  0.13037026    -0.23600
C489        C  0.79215846  0.44224559  0.10853711     0.26800
C490        C  0.81482778  0.45150444  0.09119450    -0.20300
C491        C  0.80926373  0.47214286  0.07102291    -0.10000
C492        C  0.78100235  0.48413519  0.06812303    -0.10500
C493        C  0.75822274  0.47512598  0.08536289    -0.03400
C494        C  0.76371233  0.45431686  0.10547792    -0.18600
H495        H  0.75218180  0.35244250  0.21811380     0.10500
H496        H  0.74197565  0.38202771  0.17907795     0.10600
H497        H  0.83393133  0.37887682  0.15649570     0.10300
H498        H  0.84469711  0.34985455  0.19635541     0.11400
H499        H  0.75682496  0.40430500  0.13599650     0.11500
H500        H  0.82243906  0.42061724  0.13670069     0.13400
H501        H  0.83693157  0.44272441  0.09328315     0.09900
H502        H  0.82703192  0.47901347  0.05781962     0.12000
H503        H  0.73632374  0.48441393  0.08334061     0.08600
H504        H  0.74587321  0.44844365  0.11893714     0.11300
C505        C  0.77644317  0.48097976  0.92815826    -0.03300
C506        C  0.75153234  0.47100094  0.91435299    -0.05900
C507        C  0.75451100  0.45067927  0.89348345    -0.21000
C508        C  0.78243432  0.43993775  0.88596049     0.24800
C509        C  0.80742355  0.44992584  0.90010553    -0.18500
C510        C  0.80436077  0.47018652  0.92108310    -0.08500
C511        C  0.78427331  0.41953932  0.86256019    -0.18800
C512        C  0.80840753  0.40375262  0.85585552    -0.23600
C513        C  0.81011633  0.38440930  0.83173189     0.26800
C514        C  0.83798491  0.37683818  0.82155029    -0.20300
C515        C  0.84069967  0.35937909  0.79857001    -0.10000
C516        C  0.81561873  0.34888899  0.78500189    -0.10500
C517        C  0.78764015  0.35566367  0.79588653    -0.03400
C518        C  0.78495392  0.37309394  0.81892842    -0.18600
H519        H  0.72983962  0.47928696  0.91952164     0.10500
H520        H  0.73490032  0.44355170  0.88295926     0.10600
H521        H  0.82944562  0.44295187  0.89476698     0.10300
H522        H  0.82382816  0.47799356  0.93141167     0.11400
H523        H  0.76469553  0.41796167  0.85016054     0.11500
H524        H  0.82822145  0.40545985  0.86788771     0.13400
H525        H  0.85780223  0.38488693  0.83114995     0.09900
H526        H  0.86257840  0.35444087  0.79099180     0.12000
H527        H  0.76749372  0.34790400  0.78700077     0.08600
H528        H  0.76304963  0.37729656  0.82667334     0.11300
C529        C  0.35548521  0.18656775  0.72329817    -0.03300
C530        C  0.35704122  0.21535027  0.71285274    -0.05900
C531        C  0.37259584  0.22124097  0.68901798    -0.21000
C532        C  0.38702812  0.19871805  0.67490328     0.24800
C533        C  0.38481747  0.16987731  0.68488579    -0.18500
C534        C  0.36926542  0.16398409  0.70862091    -0.08500
C535        C  0.40372953  0.20620479  0.64982255    -0.18800
C536        C  0.42395307  0.18830605  0.63842464    -0.23600
C537        C  0.44268286  0.19651032  0.61489063     0.26800
C538        C  0.46945021  0.18145636  0.61115405    -0.20300
C539        C  0.48875827  0.18933957  0.59039189    -0.10000
C540        C  0.48152442  0.21222703  0.57266678    -0.10500
C541        C  0.45421723  0.22649134  0.57547555    -0.03400
C542        C  0.43489408  0.21871904  0.59639771    -0.18600
H543        H  0.34599289  0.23351319  0.72242303     0.10500
H544        H  0.37340057  0.24360183  0.68160411     0.10600
H545        H  0.39451310  0.15152526  0.67435827     0.10300
H546        H  0.36792192  0.14149222  0.71559927     0.11400
H547        H  0.40044515  0.22800684  0.64152581     0.11500
H548        H  0.42898889  0.16745645  0.64788594     0.13400
H549        H  0.47581955  0.16398120  0.62480014     0.09900
H550        H  0.50958144  0.17785411  0.58834252     0.12000
H551        H  0.44812842  0.24396268  0.56172754     0.08600
H552        H  0.41402735  0.23012936  0.59795305     0.11300
C553        C  0.46735125  0.03714223  0.94919674    -0.03300
C554        C  0.47565095  0.06619068  0.94359369    -0.05900
C555        C  0.46055970  0.08268416  0.92434041    -0.21000
C556        C  0.43677448  0.07067397  0.91015650     0.24800
C557        C  0.42836865  0.04151154  0.91573163    -0.18500
C558        C  0.44344917  0.02499723  0.93516724    -0.08500
C559        C  0.42252300  0.08912240  0.88908582    -0.18800
C560        C  0.39671807  0.08276882  0.87708292    -0.23600
C561        C  0.38346347  0.10123041  0.85547898     0.26800
C562        C  0.35329691  0.09825521  0.85001667    -0.20300
C563        C  0.34005940  0.11444271  0.82937208    -0.10000
C564        C  0.35669178  0.13387805  0.81346541    -0.10500
C565        C  0.38693640  0.13696051  0.81898069    -0.03400
C566        C  0.40022677  0.12072182  0.83959241    -0.18600
H567        H  0.49395697  0.07625041  0.95402822     0.10500
H568        H  0.46766018  0.10496974  0.92041396     0.10600
H569        H  0.41068276  0.03101335  0.90489607     0.10300
H570        H  0.43667408  0.00258434  0.93889954     0.11400
H571        H  0.43370200  0.10935586  0.88383588     0.11500
H572        H  0.38413213  0.06388469  0.88370785     0.13400
H573        H  0.33988243  0.08324685  0.86173368     0.09900
H574        H  0.31689472  0.11117233  0.82567078     0.12000
H575        H  0.40043777  0.15204808  0.80748892     0.08600
H576        H  0.42370364  0.12318719  0.84250189     0.11300
C577        C  0.35880076  0.18845784  0.27963145    -0.03300
C578        C  0.38582710  0.20277411  0.27479679    -0.05900
C579        C  0.40495477  0.20958372  0.29589329    -0.21000
C580        C  0.39758558  0.20271007  0.32261973     0.24800
C581        C  0.37030931  0.18909738  0.32779419    -0.18500
C582        C  0.35115796  0.18206132  0.30660059    -0.08500
C583        C  0.41983757  0.20820858  0.34408831    -0.18800
C584        C  0.41329388  0.21127507  0.37046383    -0.23600
C585        C  0.43627553  0.21598756  0.39143542     0.26800
C586        C  0.42907703  0.23173750  0.41484596    -0.20300
C587        C  0.45023634  0.23647719  0.43489493    -0.10000
C588        C  0.47889327  0.22499367  0.43220869    -0.10500
C589        C  0.48581689  0.20843371  0.40920142    -0.03400
C590        C  0.46486105  0.20415190  0.38894889    -0.18600
H591        H  0.39250364  0.20809312  0.25438703     0.10500
H592        H  0.42583106  0.21997600  0.29123974     0.10600
H593        H  0.36409135  0.18285320  0.34806760     0.10300
H594        H  0.33090343  0.17102939  0.31172404     0.11400
H595        H  0.44260437  0.21071836  0.33763038     0.11500
H596        H  0.39038779  0.21166225  0.37686754     0.13400
H597        H  0.40712542  0.24073768  0.41745211     0.09900
H598        H  0.44427500  0.24913051  0.45253496     0.12000
H599        H  0.50753758  0.19879380  0.40693640     0.08600
H600        H  0.47093717  0.19103575  0.37165949     0.11300
C601        C  0.46477785  0.02568224  0.06328425    -0.03300
C602        C  0.44165719  0.00973350  0.07524203    -0.05900
C603        C  0.42438696  0.02225573  0.09559496    -0.21000
C604        C  0.42954422  0.05109096  0.10412467     0.24800
C605        C  0.45292345  0.06693535  0.09240012    -0.18500
C606        C  0.47032906  0.05435034  0.07221211    -0.08500
C607        C  0.41089443  0.06369887  0.12587546    -0.18800
C608        C  0.40571742  0.09267495  0.12803417    -0.23600
C609        C  0.38784502  0.10604116  0.14990482     0.26800
C610        C  0.37510573  0.13366628  0.14535440    -0.20300
C611        C  0.35986096  0.14808211  0.16590014    -0.10000
C612        C  0.35708837  0.13522774  0.19145132    -0.10500
C613        C  0.36984933  0.10764800  0.19620559    -0.03400
C614        C  0.38501824  0.09305367  0.17557478    -0.18600
H615        H  0.43696234  0.98750928  0.06894999     0.10500
H616        H  0.40674132  0.00948599  0.10451542     0.10600
H617        H  0.45820256  0.08887001  0.09907125     0.10300
H618        H  0.48807561  0.06715406  0.06352240     0.11400
H619        H  0.40017769  0.04856908  0.13968583     0.11500
H620        H  0.41408093  0.10737216  0.11255921     0.13400
H621        H  0.37741703  0.14437999  0.12594861     0.09900
H622        H  0.35149810  0.16987984  0.16214490     0.12000
H623        H  0.36836104  0.09761445  0.21597098     0.08600
H624        H  0.39531097  0.07218978  0.18008304     0.11300
C625        C  0.65425347  0.80221473  0.29099126    -0.03300
C626        C  0.63983563  0.77492719  0.29342555    -0.05900
C627        C  0.61910575  0.76997024  0.31385672    -0.21000
C628        C  0.61181665  0.79202996  0.33238001     0.24800
C629        C  0.62671416  0.81905111  0.33051237    -0.18500
C630        C  0.64736910  0.82406923  0.31000258    -0.08500
C631        C  0.58863085  0.78568379  0.35305565    -0.18800
C632        C  0.57604136  0.80612694  0.36903085    -0.23600
C633        C  0.55328156  0.79954104  0.38989879     0.26800
C634        C  0.54932112  0.81957575  0.41107046    -0.20300
C635        C  0.52818406  0.81457663  0.43111453    -0.10000
C636        C  0.51034065  0.78950729  0.43028989    -0.10500
C637        C  0.51391199  0.76956718  0.40901992    -0.03400
C638        C  0.53508732  0.77453729  0.38893627    -0.18600
H639        H  0.64316811  0.75751031  0.27911215     0.10500
H640        H  0.60809962  0.74891449  0.31472281     0.10600
H641        H  0.62258973  0.83661531  0.34456972     0.10300
H642        H  0.65757320  0.84547629  0.30859615     0.11400
H643        H  0.58173186  0.76301336  0.35502622     0.11500
H644        H  0.58296925  0.82877862  0.36753149     0.13400
H645        H  0.56282119  0.83910513  0.41222034     0.09900
H646        H  0.52569686  0.83028738  0.44729846     0.12000
H647        H  0.50025693  0.75013796  0.40800467     0.08600
H648        H  0.53670606  0.75899330  0.37259138     0.11300
C649        C  0.66056947  0.85888727  0.20447200    -0.03300
C650        C  0.64086087  0.88169695  0.21079683    -0.05900
C651        C  0.62740753  0.89798341  0.19034238    -0.21000
C652        C  0.63292164  0.89140898  0.16322616     0.24800
C653        C  0.65305336  0.86898228  0.15681904    -0.18500
C654        C  0.66688214  0.85296735  0.17729711    -0.08500
C655        C  0.61773474  0.90861343  0.14206758    -0.18800
C656        C  0.60784155  0.89639117  0.11919200    -0.23600
C657        C  0.59138622  0.91338233  0.09863227     0.26800
C658        C  0.56901350  0.89958735  0.08392888    -0.20300
C659        C  0.55315445  0.91511797  0.06439658    -0.10000
C660        C  0.55980492  0.94462550  0.05883247    -0.10500
C661        C  0.58253883  0.95828936  0.07332366    -0.03400
C662        C  0.59811879  0.94286251  0.09307472    -0.18600
H663        H  0.63584810  0.88695186  0.23157663     0.10500
H664        H  0.61215973  0.91536048  0.19568956     0.10600
H665        H  0.65817328  0.86390515  0.13602395     0.10300
H666        H  0.68179202  0.83537005  0.17182238     0.11400
H667        H  0.61257892  0.93140680  0.14638027     0.11500
H668        H  0.61016969  0.87288661  0.11625981     0.13400
H669        H  0.56355685  0.87684046  0.08781173     0.09900
H670        H  0.53579608  0.90396400  0.05356337     0.12000
H671        H  0.58824721  0.98097529  0.06949219     0.08600
H672        H  0.61573357  0.95388913  0.10365755     0.11300
C673        C  0.74539348  0.63225749  0.06730355    -0.03300
C674        C  0.72144881  0.62686006  0.08447536    -0.05900
C675        C  0.71442447  0.64650000  0.10503323    -0.21000
C676        C  0.73113914  0.67205158  0.10902810     0.24800
C677        C  0.75494606  0.67774954  0.09139003    -0.18500
C678        C  0.76194807  0.65796600  0.07069925    -0.08500
C679        C  0.72258043  0.69143745  0.13197243    -0.18800
C680        C  0.73615683  0.71661114  0.13902587    -0.23600
C681        C  0.72651447  0.73541517  0.16212729     0.26800
C682        C  0.74477933  0.75865687  0.17025898    -0.20300
C683        C  0.73626733  0.77737718  0.19124418    -0.10000
C684        C  0.70933087  0.77316090  0.20469851    -0.10500
C685        C  0.69112402  0.74991031  0.19678659    -0.03400
C686        C  0.69943132  0.73140442  0.17571389    -0.18600
H687        H  0.70831582  0.60722759  0.08205858     0.10500
H688        H  0.69587828  0.64151688  0.11806248     0.10600
H689        H  0.76838979  0.69713149  0.09340314     0.10300
H690        H  0.78048223  0.66249502  0.05752716     0.11400
H691        H  0.70412096  0.68378408  0.14388782     0.11500
H692        H  0.75531850  0.72390478  0.12780694     0.18600
H693        H  0.76569394  0.76245196  0.16025097     0.09900
H694        H  0.75085566  0.79502682  0.19704030     0.12000
H695        H  0.66990115  0.74653018  0.20635607     0.08600
H696        H  0.68397006  0.71460106  0.17001261     0.11300
C697        C  0.65368064  0.81318274  0.70725403    -0.03300
C698        C  0.65499785  0.78676052  0.69264759    -0.05900
C699        C  0.63739615  0.78256375  0.66999314    -0.21000
C700        C  0.61859946  0.80483048  0.66074476     0.24800
C701        C  0.61913962  0.83221407  0.67379365    -0.18500
C702        C  0.63681794  0.83640712  0.69653446    -0.08500
C703        C  0.59744193  0.79751906  0.63893786    -0.18800
C704        C  0.58058819  0.81718980  0.62577490    -0.23600
C705        C  0.55752262  0.80828667  0.60628072     0.26800
C706        C  0.54971027  0.82763477  0.58544940    -0.20300
C707        C  0.52767349  0.82012293  0.56710753    -0.10000
C708        C  0.51278509  0.79329951  0.56953048    -0.10500
C709        C  0.52017166  0.77406362  0.59054799    -0.03400
C710        C  0.54228180  0.78150591  0.60884521    -0.18600
H711        H  0.66943350  0.76902545  0.69858477     0.10500
H712        H  0.63805474  0.76149975  0.65994995     0.10600
H713        H  0.60528054  0.85018382  0.66731667     0.10300
H714        H  0.63650485  0.85762467  0.70626304     0.11400
H715        H  0.59540429  0.77448373  0.63376470     0.11500
H716        H  0.58392916  0.84048606  0.62874822     0.13400
H717        H  0.56085384  0.84850025  0.58324790     0.09900
H718        H  0.52214818  0.83523334  0.55100101     0.12000
H719        H  0.50880074  0.75332036  0.59274687     0.08600
H720        H  0.54695839  0.76650078  0.62521987     0.11300
C721        C  0.56099293  0.95566028  0.94276143    -0.03300
C722        C  0.58179355  0.97276147  0.92877083    -0.05900
C723        C  0.59723234  0.96110975  0.90681944    -0.21000
C724        C  0.59267022  0.93199515  0.89882290     0.24800
C725        C  0.57184541  0.91487731  0.91278255    -0.18500
C726        C  0.55610579  0.92663929  0.93445805    -0.08500
C727        C  0.60875274  0.92045668  0.87505822    -0.18800
C728        C  0.61627618  0.89201608  0.87264980    -0.23600
C729        C  0.63086831  0.87986552  0.84833966     0.26800
C730        C  0.64843769  0.85465278  0.85089853    -0.20300
C731        C  0.66137447  0.84183118  0.82820925    -0.10000
C732        C  0.65655512  0.85372516  0.80245404    -0.10500
C733        C  0.63880632  0.87882141  0.79982124    -0.03400
C734        C  0.62612740  0.89183944  0.82254292    -0.18600
H735        H  0.58578958  0.99530135  0.93450707     0.10500
H736        H  0.61289350  0.97481042  0.89613189     0.10600
H737        H  0.56715294  0.89262866  0.90659959     0.10300
H738        H  0.54006715  0.91298855  0.94470509     0.11400
H739        H  0.61538519  0.93603010  0.85960513     0.11500
H740        H  0.61233272  0.87713367  0.88940480     0.13400
H741        H  0.65205801  0.84478730  0.87050285     0.09900
H742        H  0.67445794  0.82212222  0.83076353     0.12000
H743        H  0.63472024  0.88836326  0.78017151     0.08600
H744        H  0.61199070  0.91074703  0.81973687     0.11300
C745        C  0.74950921  0.63108047  0.92664251    -0.03300
C746        C  0.76716670  0.65624677  0.92589511    -0.05900
C747        C  0.76233567  0.67780761  0.90636517    -0.21000
C748        C  0.73989451  0.67454428  0.88715379     0.24800
C749        C  0.72225524  0.64911522  0.88796428    -0.18500
C750        C  0.72709209  0.62760444  0.90754585    -0.08500
C751        C  0.73490920  0.69879394  0.86760792    -0.18800
C752        C  0.71858392  0.69626392  0.84512442    -0.23600
C753        C  0.71266588  0.72122898  0.82671829     0.26800
C754        C  0.68645156  0.72121627  0.81182072    -0.20300
C755        C  0.67997205  0.74424637  0.79422097    -0.10000
C756        C  0.69983088  0.76762406  0.79086961    -0.10500
C757        C  0.72615638  0.76761010  0.80565809    -0.03400
C758        C  0.73261747  0.74457507  0.82335241    -0.18600
H759        H  0.78452790  0.65924182  0.94058037     0.10500
H760        H  0.77610808  0.69719491  0.90634013     0.10600
H761        H  0.70419505  0.64588975  0.87415699     0.10300
H762        H  0.71310346  0.60837619  0.90807137     0.11400
H763        H  0.74487625  0.71978236  0.87230951     0.11500
H764        H  0.70814317  0.67561486  0.84022695     0.13400
H765        H  0.67073798  0.70350078  0.81408416     0.09900
H766        H  0.65918724  0.74391188  0.78354366     0.12000
H767        H  0.74204706  0.78510438  0.80314715     0.08600
H768        H  0.75347985  0.74485985  0.83386910     0.11300
C769        C  0.30279113  0.21545067  0.81069136    -0.03300
C770        C  0.30721197  0.20818291  0.83788095    -0.05900
C771        C  0.29988555  0.22809739  0.85816762    -0.21000
C772        C  0.28774362  0.25559620  0.85177490     0.24800
C773        C  0.28329282  0.26284843  0.82445817    -0.18500
C774        C  0.29071077  0.24292422  0.80416604    -0.08500
C775        C  0.28157216  0.27645732  0.87409386    -0.18800
C776        C  0.26417039  0.30031668  0.87165323    -0.23600
C777        C  0.25926505  0.32183311  0.89369608     0.26800
C778        C  0.23479117  0.34070997  0.89214370    -0.20300
C779        C  0.23006010  0.36216570  0.91176283    -0.10000
C780        C  0.24994653  0.36537153  0.93316098    -0.10500
C781        C  0.27432610  0.34648834  0.93490187    -0.03400
C782        C  0.27905599  0.32499200  0.91534074    -0.18600
H783        H  0.31716604  0.18743725  0.84347837     0.10500
H784        H  0.30397712  0.22207574  0.87896090     0.10600
H785        H  0.27485706  0.28406159  0.81846983     0.10300
H786        H  0.28716807  0.24907174  0.78332754     0.11400
H787        H  0.29130453  0.27133301  0.89348811     0.11500
H788        H  0.25228579  0.30410069  0.85303274     0.13400
H789        H  0.21934600  0.33893644  0.87561298     0.09900
H790        H  0.21108753  0.37653362  0.91011069     0.12000
H791        H  0.29002348  0.34881586  0.95117037     0.08600
H792        H  0.29868959  0.31161993  0.91693341     0.11300
C793        C  0.30739962  0.22060818  0.19355008    -0.03300
C794        C  0.30319694  0.21197979  0.16662869    -0.05900
C795        C  0.29526895  0.23231676  0.14696261    -0.21000
C796        C  0.29051107  0.26169512  0.15368908     0.24800
C797        C  0.29419572  0.27057252  0.18057782    -0.18500
C798        C  0.30252101  0.25020846  0.20030658    -0.08500
C799        C  0.28310357  0.28247917  0.13180189    -0.18800
C800        C  0.26796122  0.30749102  0.13567018    -0.23600
C801        C  0.26163890  0.32826114  0.11340146     0.26800
C802        C  0.23717421  0.34705058  0.11540632    -0.20300
C803        C  0.23121776  0.36741041  0.09501617    -0.10000
C804        C  0.25001726  0.36963299  0.07257780    -0.10500
C805        C  0.27447452  0.35092932  0.07056949    -0.03400
C806        C  0.28029264  0.33046249  0.09076433    -0.18600
H807        H  0.30634468  0.18964152  0.16022958     0.10500
H808        H  0.29272867  0.22499561  0.12634340     0.10600
H809        H  0.29130744  0.29326406  0.18635289     0.10300
H810        H  0.30491990  0.25774693  0.22082382     0.11400
H811        H  0.28930734  0.27610241  0.11149940     0.11500
H812        H  0.25903370  0.31247583  0.15546107     0.13400
H813        H  0.22264865  0.34592256  0.13274430     0.09900
H814        H  0.21220510  0.38170078  0.09685882     0.12000
H815        H  0.28936210  0.35256153  0.05351980     0.08600
H816        H  0.29991567  0.31708557  0.08889099     0.11300
C817        C  0.22421466  0.52031411  0.06898743    -0.03300
C818        C  0.24563948  0.54228780  0.07090904    -0.05900
C819        C  0.24321776  0.56403857  0.09057744    -0.21000
C820        C  0.21909829  0.56449801  0.10839065     0.24800
C821        C  0.19763104  0.54228933  0.10644248    -0.18500
C822        C  0.20022640  0.52036758  0.08688338    -0.08500
C823        C  0.21803040  0.58744330  0.12961540    -0.18800
C824        C  0.19283420  0.59654009  0.14146685    -0.23600
C825        C  0.19153443  0.61791740  0.16413908     0.26800
C826        C  0.16405837  0.62963420  0.17155159    -0.20300
C827        C  0.16123576  0.64742376  0.19432449    -0.10000
C828        C  0.18580701  0.65406050  0.21049333    -0.10500
C829        C  0.21357597  0.64308948  0.20240756    -0.03400
C830        C  0.21635565  0.62520352  0.17968896    -0.18600
H831        H  0.26443459  0.54232091  0.05738711     0.10500
H832        H  0.26024685  0.58059836  0.09188167     0.10600
H833        H  0.17927013  0.54128364  0.12037264     0.10300
H834        H  0.18370323  0.50328922  0.08582096     0.11400
H835        H  0.23880687  0.59758492  0.13491805     0.11500
H836        H  0.17196804  0.58803178  0.13423830     0.13400
H837        H  0.14449575  0.62442507  0.16004385     0.09900
H838        H  0.13952097  0.65538026  0.19984734     0.12000
H839        H  0.23336274  0.64705793  0.21373526     0.08600
H840        H  0.23791644  0.61630843  0.17521946     0.11300
C841        C  0.22613833  0.51614379  0.92908406    -0.03300
C842        C  0.24426886  0.54098774  0.92782801    -0.05900
C843        C  0.24046255  0.56171394  0.90729390    -0.21000
C844        C  0.21830913  0.55810944  0.88784580     0.24800
C845        C  0.20021916  0.53305068  0.88918852    -0.18500
C846        C  0.20407896  0.51234645  0.90968730    -0.08500
C847        C  0.21571275  0.58006784  0.86575291    -0.18800
C848        C  0.19080265  0.58427192  0.85149054    -0.23600
C849        C  0.18825297  0.60518173  0.82854164     0.26800
C850        C  0.16006597  0.61423584  0.82048848    -0.20300
C851        C  0.15642557  0.63250770  0.79812230    -0.10000
C852        C  0.18084309  0.64202356  0.78282134    -0.10500
C853        C  0.20920903  0.63315417  0.79114528    -0.03400
C854        C  0.21284131  0.61490778  0.81365318    -0.18600
H855        H  0.26144530  0.54418853  0.94265445     0.10500
H856        H  0.25484727  0.58064178  0.90659652     0.10600
H857        H  0.18353443  0.52890589  0.87415834     0.10300
H858        H  0.18998092  0.49320420  0.91036836     0.11400
H859        H  0.23479066  0.59375020  0.86178469     0.11500
H860        H  0.17096252  0.57250899  0.85722632     0.13400
H861        H  0.14069323  0.60690196  0.83139664     0.09900
H862        H  0.13426048  0.63868166  0.79225231     0.12000
H863        H  0.22879394  0.63938412  0.78022780     0.08600
H864        H  0.23490879  0.60775589  0.81868229     0.11300
C865        C  0.14310606  0.74397124  0.25664270    -0.03300
C866        C  0.12426095  0.75102713  0.27817761    -0.05900
C867        C  0.10971526  0.77807611  0.27897186    -0.21000
C868        C  0.11336031  0.79874266  0.25819605     0.24800
C869        C  0.13242791  0.79181341  0.23665615    -0.18500
C870        C  0.14702740  0.76470621  0.23588580    -0.08500
C871        C  0.09738977  0.82729029  0.26040264    -0.18800
C872        C  0.09375280  0.84651301  0.23993211    -0.23600
C873        C  0.07739309  0.87480049  0.24262547     0.26800
C874        C  0.06707906  0.88883387  0.21922192    -0.20300
C875        C  0.05190036  0.91555599  0.22076337    -0.10000
C876        C  0.04674168  0.92895320  0.24580768    -0.10500
C877        C  0.05726660  0.91508005  0.26923169    -0.03400
C878        C  0.07255400  0.88845540  0.26768675    -0.18600
H879        H  0.12024635  0.73547804  0.29427842     0.10500
H880        H  0.09530318  0.78277318  0.29587308     0.10600
H881        H  0.13666999  0.80728152  0.22058105     0.10300
H882        H  0.16184409  0.76025090  0.21924822     0.11400
H883        H  0.08713805  0.83190430  0.27969497     0.11500
H884        H  0.10188929  0.84101456  0.22001670     0.13400
H885        H  0.07065110  0.87900432  0.19963278     0.09900
H886        H  0.04410874  0.92565298  0.20232503     0.12000
H887        H  0.05393936  0.92493619  0.28883744     0.08600
H888        H  0.08092875  0.87909427  0.28618191     0.11300
C889        C  0.07964417  0.04879568  0.25271455    -0.03300
C890        C  0.09513645  0.05240601  0.27693929    -0.05900
C891        C  0.12268208  0.06619305  0.27714424    -0.21000
C892        C  0.13544925  0.07689328  0.25323001     0.24800
C893        C  0.11996325  0.07319546  0.22889818    -0.18500
C894        C  0.09239253  0.05938648  0.22870324    -0.08500
C895        C  0.16529932  0.09059185  0.25471110    -0.18800
C896        C  0.17802509  0.10619730  0.23465876    -0.23600
C897        C  0.20823548  0.11905475  0.23636148     0.26800
C898        C  0.21622082  0.14118505  0.21799679    -0.20300
C899        C  0.24454872  0.15330391  0.21832412    -0.10000
C900        C  0.26560117  0.14359520  0.23707567    -0.10500
C901        C  0.25777063  0.12147586  0.25544710    -0.03400
C902        C  0.22951430  0.10914796  0.25498597    -0.18600
H903        H  0.08612065  0.04432211  0.29576569     0.10500
H904        H  0.13413877  0.06842433  0.29615408     0.10600
H905        H  0.12908991  0.08030382  0.20984721     0.10300
H906        H  0.08118020  0.05676571  0.20962367     0.11400
H907        H  0.17685902  0.08820050  0.27368395     0.11500
H908        H  0.16572543  0.11065556  0.21640049     0.13400
H909        H  0.20044384  0.14920505  0.20335025     0.09900
H910        H  0.24983529  0.17059679  0.20411608     0.12000
H911        H  0.27373481  0.11325437  0.26981392     0.08600
H912        H  0.22484006  0.09147633  0.26889302     0.11300
C913        C  0.95629575  0.08128077  0.25715621    -0.03300
C914        C  0.94384542  0.08947871  0.28201074    -0.05900
C915        C  0.92797710  0.11568263  0.28449836    -0.21000
C916        C  0.92399911  0.13430781  0.26223633     0.24800
C917        C  0.93663246  0.12625371  0.23735212    -0.18500
C918        C  0.95247755  0.09996383  0.23484250    -0.08500
C919        C  0.90766239  0.16240308  0.26610321    -0.18800
C920        C  0.89398041  0.17690117  0.24597853    -0.23600
C921        C  0.87779205  0.20510789  0.24965578     0.26800
C922        C  0.85636006  0.21300463  0.23063255    -0.20300
C923        C  0.84151801  0.23982227  0.23246371    -0.10000
C924        C  0.84800942  0.25975383  0.25321311    -0.10500
C925        C  0.86933740  0.25181180  0.27242480    -0.03400
C926        C  0.88410955  0.22481506  0.27067734    -0.18600
H927        H  0.94629314  0.07559122  0.29960573     0.10500
H928        H  0.91867361  0.12138941  0.30392363     0.10600
H929        H  0.93491328  0.14042092  0.21990819     0.10300
H930        H  0.96207910  0.09446393  0.21549747     0.11400
H931        H  0.90581958  0.17062787  0.28653863     0.11500
H932        H  0.89349478  0.16721511  0.22603248     0.13400
H933        H  0.85103531  0.19832225  0.21423128     0.09900
H934        H  0.82483141  0.24481958  0.21758354     0.12000
H935        H  0.87533237  0.26678862  0.28836338     0.08600
H936        H  0.90106005  0.21995272  0.28532479     0.11300
C937        C  0.74728307  0.85101685  0.25392815    -0.03300
C938        C  0.76716303  0.84525216  0.27495811    -0.05900
C939        C  0.79384441  0.86049599  0.27662149    -0.21000
C940        C  0.80142663  0.88177153  0.25729806     0.24800
C941        C  0.78141283  0.88770711  0.23630415    -0.18500
C942        C  0.75471933  0.87242482  0.23463905    -0.08500
C943        C  0.82976466  0.89793553  0.26053050    -0.18800
C944        C  0.84348107  0.91256946  0.24043955    -0.23600
C945        C  0.87191446  0.92861820  0.24371631     0.26800
C946        C  0.88802840  0.93605826  0.22050404    -0.20300
C947        C  0.91451033  0.95155376  0.22238087    -0.10000
C948        C  0.92560221  0.96016005  0.24758034    -0.10500
C949        C  0.90952815  0.95282038  0.27088479    -0.03400
C950        C  0.88289290  0.93740173  0.26900058    -0.18600
H951        H  0.76228790  0.82869333  0.28998771     0.10500
H952        H  0.80871993  0.85554263  0.29307262     0.10600
H953        H  0.78581206  0.90456324  0.22147602     0.10300
H954        H  0.73959028  0.87793525  0.21855590     0.11400
H955        H  0.84018774  0.89653620  0.28012568     0.11500
H956        H  0.83427582  0.91188450  0.22029955     0.13400
H957        H  0.88012340  0.92980899  0.20075874     0.09900
H958        H  0.92631237  0.95678540  0.20399193     0.12000
H959        H  0.91731578  0.95933849  0.29058297     0.08600
H960        H  0.87085620  0.93300724  0.28738873     0.11300
C961        C  0.08055489  0.04226340  0.74468983    -0.03300
C962        C  0.09150540  0.05610633  0.72142340    -0.05900
C963        C  0.11840937  0.07102531  0.72195396    -0.21000
C964        C  0.13528522  0.07228100  0.74561989     0.24800
C965        C  0.12411475  0.05880493  0.76910733    -0.18500
C966        C  0.09706217  0.04397830  0.76860347    -0.08500
C967        C  0.16378189  0.08862343  0.74483612    -0.18800
C968        C  0.18553392  0.08561170  0.76320546    -0.23600
C969        C  0.21409225  0.10204655  0.76252319     0.26800
C970        C  0.23340202  0.09901108  0.78445378    -0.20300
C971        C  0.26002966  0.11444818  0.78532134    -0.10000
C972        C  0.26827516  0.13333382  0.76420443    -0.10500
C973        C  0.24925312  0.13597733  0.74196808    -0.03400
C974        C  0.22261257  0.12054025  0.74105741    -0.18600
H975        H  0.07924033  0.05549397  0.70274068     0.10500
H976        H  0.12619783  0.08147315  0.70364535     0.10600
H977        H  0.13580114  0.05994521  0.78802376     0.10300
H978        H  0.08913050  0.03375765  0.78695933     0.11400
H979        H  0.16676897  0.10327906  0.72787134     0.11500
H980        H  0.18252992  0.07033515  0.77976244     0.13400
H981        H  0.22775799  0.08478334  0.80120423     0.09900
H982        H  0.27408852  0.11134086  0.80257115     0.12000
H983        H  0.25452363  0.15054143  0.72540039     0.08600
H984        H  0.20901692  0.12350579  0.72344989     0.11300
C985        C  0.13478283  0.73185095  0.73963473    -0.03300
C986        C  0.11268191  0.73781705  0.75867982    -0.05900
C987        C  0.09936752  0.76545991  0.75974145    -0.21000
C988        C  0.10778183  0.78794851  0.74189604     0.24800
C989        C  0.13002368  0.78197609  0.72275044    -0.18500
C990        C  0.14323039  0.75414427  0.72158454    -0.08500
C991        C  0.09308763  0.81714412  0.74479977    -0.18800
C992        C  0.09535241  0.83968829  0.72720478    -0.23600
C993        C  0.07943389  0.86816928  0.73085913     0.26800
C994        C  0.07405035  0.88594489  0.70823032    -0.20300
C995        C  0.05855179  0.91242823  0.71072122    -0.10000
C996        C  0.04829151  0.92199603  0.73601195    -0.10500
C997        C  0.05435918  0.90462710  0.75877799    -0.03400
C998        C  0.06981535  0.87813100  0.75628506    -0.18600
H999        H  0.10555581  0.72102859  0.77272045     0.10500
H1000       H  0.08238382  0.76930718  0.77472426     0.10600
H1001       H  0.13776110  0.79865583  0.70895495     0.10300
H1002       H  0.16065969  0.75033390  0.70703677     0.11400
H1003       H  0.07864053  0.81959249  0.76209850     0.11500
H1004       H  0.10793506  0.83695779  0.70877803     0.13400
H1005       H  0.08150826  0.87912627  0.68845494     0.09900
H1006       H  0.05458776  0.92540052  0.69277572     0.12000
H1007       H  0.04712106  0.91147794  0.77860033     0.08600
H1008       H  0.07444132  0.86582281  0.77444056     0.11300
C1009       C  0.92663766  0.95322098  0.74085297    -0.03300
C1010       C  0.91183930  0.94846197  0.71641121    -0.05900
C1011       C  0.88582820  0.93202022  0.71572884    -0.21000
C1012       C  0.87378798  0.92004736  0.73941974     0.24800
C1013       C  0.88878979  0.92445691  0.76389513    -0.18500
C1014       C  0.91481662  0.94095975  0.76458288    -0.08500
C1015       C  0.84598221  0.90274074  0.73747439    -0.18800
C1016       C  0.82766353  0.89768294  0.75845553    -0.23600
C1017       C  0.79912485  0.88161715  0.75625224     0.26800
C1018       C  0.77806635  0.88510056  0.77682648    -0.20300
C1019       C  0.75104111  0.87040370  0.77582205    -0.10000
C1020       C  0.74442372  0.85180507  0.75419246    -0.10500
C1021       C  0.76544972  0.84811864  0.73362303    -0.03400
C1022       C  0.79258387  0.86267198  0.73469458    -0.18600
H1023       H  0.92035552  0.95743754  0.69773197     0.10500
H1024       H  0.87493565  0.92880481  0.69656344     0.10600
H1025       H  0.88090387  0.91486837  0.78250665     0.10300
H1026       H  0.92584663  0.94385357  0.78371574     0.11400
H1027       H  0.83968891  0.89547543  0.71752225     0.11500
H1028       H  0.83279997  0.90704977  0.77794533     0.13400
H1029       H  0.78244663  0.89946173  0.79369419     0.09900
H1030       H  0.73512421  0.87401717  0.79178220     0.12000
H1031       H  0.76114002  0.83351683  0.71692730     0.08600
H1032       H  0.80840771  0.85851969  0.71882807     0.11300
C1033       C  0.86112508  0.26028695  0.73893298    -0.03300
C1034       C  0.87794436  0.25262781  0.71622160    -0.05900
C1035       C  0.89325359  0.22600632  0.71523605    -0.21000
C1036       C  0.89234531  0.20620632  0.73693812     0.24800
C1037       C  0.87531948  0.21368211  0.75972844    -0.18500
C1038       C  0.85998806  0.24042861  0.76070408    -0.08500
C1039       C  0.90871649  0.17785797  0.73427372    -0.18800
C1040       C  0.91469215  0.15937171  0.75486991    -0.23600
C1041       C  0.93098792  0.13102588  0.75171308     0.26800
C1042       C  0.94322220  0.11769919  0.77469351    -0.20300
C1043       C  0.95773401  0.09060195  0.77295914    -0.10000
C1044       C  0.96034876  0.07605543  0.74813693    -0.10500
C1045       C  0.94831118  0.08943556  0.72505892    -0.03400
C1046       C  0.93365496  0.11645431  0.72680877    -0.18600
H1047       H  0.87970567  0.26728904  0.69920488     0.10500
H1048       H  0.90600540  0.22090987  0.69735253     0.10600
H1049       H  0.87317442  0.19886901  0.77664898     0.10300
H1050       H  0.84670220  0.24519824  0.77831157     0.11400
H1051       H  0.91708463  0.17268536  0.71435838     0.11500
H1052       H  0.90836667  0.16545564  0.77517996     0.13400
H1053       H  0.94150426  0.12829218  0.79414678     0.09900
H1054       H  0.96694041  0.08106214  0.79109611     0.12000
H1055       H  0.94981245  0.07880083  0.70561789     0.08600
H1056       H  0.92393577  0.12533051  0.70866742     0.11300
loop_ 
_geom_bond_atom_site_label_1 
_geom_bond_atom_site_label_2 
_geom_bond_distance 
_geom_bond_site_symmetry_2 
_ccdc_geom_bond_type 
O1           Ni9   1.927       .  S
O1           C11   1.284       .  A
O2           Ni9   1.929   1_645  S
O2           C12   1.284       .  A
O3           Ni9   1.921   1_655  S
O3           C13   1.282       .  A
O4           Ni9   1.919   1_545  S
O4           C14   1.281       .  A
O5          Ni10   1.923       .  S
O5           C14   1.283       .  A
O6          Ni10   1.924   1_665  S
O6           C13   1.283       .  A
O7          Ni10   1.918   1_655  S
O7           C12   1.281       .  A
O8          Ni10   1.919   1_565  S
O8           C11   1.282       .  A
Ni9         Ni10   2.384   1_565  S
C11         C996   1.488       .  S
C12        C1044   1.488       .  S
C13        C1009   1.487       .  S
C14         C961   1.485       .  S
O15         Ni23   1.924   1_565  S
O15          C25   1.283       .  A
O16         Ni23   1.926   1_655  S
O16          C26   1.283       .  A
O17         Ni23   1.915       .  S
O17          C27   1.281       .  A
O18         Ni23   1.913   1_665  S
O18          C28   1.281       .  A
O19         Ni24   1.928   1_665  S
O19          C28   1.284       .  A
O20         Ni24   1.928       .  S
O20          C27   1.284       .  A
O21         Ni24   1.917   1_655  S
O21          C26   1.281       .  A
O22         Ni24   1.916   1_565  S
O22          C25   1.281       .  A
Ni23        Ni24   2.385       .  S
C25         C876   1.484       .  S
C26         C913   1.486       .  S
C27         C889   1.487       .  S
C28         C948   1.486       .  S
N29          C34   1.353   1_554  A
N29          C33   1.352       .  A
N29          H61   1.039       .  S
N30          C37   1.350       .  A
N30          C38   1.351       .  A
N31          C36   1.352   1_554  A
N31          C35   1.353       .  A
N31          H62   1.039       .  S
N32          C39   1.352       .  A
N32          C40   1.351       .  A
C33          C41   1.387       .  A
C33          C49   1.414       .  A
C34          C50   1.414       .  A
C34          C42   1.387       .  A
C35          C43   1.386       .  A
C35          C52   1.413       .  A
C36          C51   1.414       .  A
C36          C44   1.387       .  A
C37          C49   1.412       .  A
C37          C45   1.387       .  A
C38          C52   1.410       .  A
C38          C46   1.385       .  A
C39          C47   1.386       .  A
C39          C50   1.413       .  A
C40          C48   1.386       .  A
C40          C51   1.413       .  A
C41          C42   1.375   1_554  A
C41          H53   1.082       .  S
C42          H54   1.082       .  S
C43          C44   1.375   1_554  A
C43          H55   1.082       .  S
C44          H56   1.082       .  S
C45          C46   1.371       .  A
C45          H57   1.082       .  S
C46          H58   1.082       .  S
C47          C48   1.372       .  A
C47          H59   1.082       .  S
C48          H60   1.082       .  S
C49         C804   1.483       .  S
C50         C780   1.487       .  S
C51         C841   1.484       .  S
C52         C817   1.483       .  S
C63          C64   1.533       .  S
C63          C69   1.543       .  S
C63          C67   1.542       .  S
C63         C697   1.527       .  S
C64          H71   1.086       .  S
C64          C65   1.367       .  D
C65          C66   1.541       .  S
C65        C1020   1.486       .  S
C66          C70   1.536       .  S
C66          C68   1.536       .  S
C66          H72   1.109       .  S
C67          H73   1.083       .  S
C67          C68   1.364       .  D
C68         C756   1.483       .  S
C69          H74   1.086       .  S
C69          C70   1.367       .  D
C70         C732   1.481       .  S
C75          C76   1.535       .  S
C75          C81   1.542       .  S
C75          C79   1.545       .  S
C75         C625   1.532       .  S
C76          H83   1.086       .  S
C76          C77   1.364       .  D
C77          C78   1.536       .  S
C77         C649   1.483       .  S
C78          C82   1.541       .  S
C78          C80   1.536       .  S
C78          H84   1.109       .  S
C79          H85   1.082       .  S
C79          C80   1.367       .  D
C80         C684   1.485       .  S
C81          H86   1.085       .  S
C81          C82   1.372       .  D
C82         C937   1.490       .  S
C87          C88   1.537       .  S
C87          C93   1.547       .  S
C87          C91   1.543       .  S
C87         C577   1.533       .  S
C88          H95   1.087       .  S
C88          C89   1.361       .  D
C89          C90   1.535       .  S
C89         C612   1.478       .  S
C90          C94   1.537       .  S
C90          C92   1.538       .  S
C90          H96   1.107       .  S
C91          H97   1.085       .  S
C91          C92   1.372       .  D
C92         C793   1.493       .  S
C93          H98   1.082       .  S
C93          C94   1.370       .  D
C94         C900   1.487       .  S
C99         C100   1.535       .  S
C99         C105   1.540       .  S
C99         C103   1.543       .  S
C99         C529   1.531       .  S
C100        H107   1.085       .  S
C100        C101   1.368       .  D
C101        C102   1.544       .  S
C101        C972   1.496       .  S
C102        C106   1.540       .  S
C102        C104   1.537       .  S
C102        H108   1.107       .  S
C103        H109   1.082       .  S
C103        C104   1.366       .  D
C104        C769   1.482       .  S
C105        H110   1.085       .  S
C105        C106   1.369       .  D
C106        C564   1.491       .  S
O111       Ni119   1.918       .  S
O111        C121   1.282       .  A
O112       Ni119   1.920   1_566  S
O112        C122   1.282       .  A
O113       Ni119   1.909   1_556  S
O113        C123   1.281       .  A
O114       Ni119   1.914   1_565  S
O114        C124   1.281       .  A
O115       Ni120   1.919       .  S
O115        C124   1.282       .  A
O116       Ni120   1.922   1_556  S
O116        C123   1.283   1_565  A
O117       Ni120   1.915   1_556  S
O117        C122   1.281       .  A
O118       Ni120   1.916       .  S
O118        C121   1.281   1_565  A
Ni119      Ni120   2.387   1_545  S
C121        C601   1.481       .  S
C122        C721   1.479       .  S
C123        C553   1.480       .  S
C124        C660   1.480       .  S
N125        C130   1.351       .  A
N125        C129   1.355   1_556  A
N125        H157   1.044       .  S
N126        C133   1.352       .  A
N126        C134   1.351       .  A
N127        C132   1.352       .  A
N127        C131   1.349   1_556  A
N127        H158   1.046       .  S
N128        C135   1.351       .  A
N128        C136   1.353       .  A
C129        C137   1.386       .  A
C129        C145   1.416       .  A
C130        C146   1.416       .  A
C130        C138   1.388       .  A
C131        C139   1.387       .  A
C131        C148   1.414       .  A
C132        C147   1.413       .  A
C132        C140   1.386       .  A
C133        C145   1.413       .  A
C133        C141   1.386       .  A
C134        C148   1.413       .  A
C134        C142   1.387       .  A
C135        C143   1.387       .  A
C135        C146   1.414       .  A
C136        C144   1.385       .  A
C136        C147   1.412       .  A
C137        C138   1.375   1_554  A
C137        H149   1.082       .  S
C138        H150   1.082       .  S
C139        C140   1.375   1_554  A
C139        H151   1.083       .  S
C140        H152   1.083       .  S
C141        C142   1.372       .  A
C141        H153   1.082       .  S
C142        H154   1.082       .  S
C143        C144   1.371       .  A
C143        H155   1.082       .  S
C144        H156   1.082       .  S
C145        C673   1.490       .  S
C146        C745   1.482       .  S
C147        C505   1.484       .  S
C148        C492   1.478       .  S
N159        C164   1.355       .  A
N159        C163   1.353       .  A
N159        H191   1.040       .  S
N160        C167   1.351       .  A
N160        C168   1.352       .  A
N161        C166   1.352       .  A
N161        C165   1.353       .  A
N161        H192   1.040       .  S
N162        C169   1.351       .  A
N162        C170   1.351       .  A
C163        C171   1.387       .  A
C163        C179   1.417       .  A
C164        C180   1.417       .  A
C164        C172   1.387       .  A
C165        C173   1.387       .  A
C165        C182   1.414       .  A
C166        C181   1.412       .  A
C166        C174   1.387       .  A
C167        C179   1.413       .  A
C167        C175   1.387       .  A
C168        C182   1.412       .  A
C168        C176   1.385       .  A
C169        C177   1.386       .  A
C169        C180   1.412       .  A
C170        C178   1.386       .  A
C170        C181   1.412       .  A
C171        C172   1.377       .  A
C171        H183   1.082       .  S
C172        H184   1.082       .  S
C173        C174   1.375       .  A
C173        H185   1.082       .  S
C174        H186   1.082       .  S
C175        C176   1.374       .  A
C175        H187   1.082       .  S
C176        H188   1.082       .  S
C177        C178   1.373       .  A
C177        H189   1.082       .  S
C178        H190   1.082       .  S
C179        C444   1.490       .  S
C180        C457   1.490       .  S
C181        C708   1.484       .  S
C182        C636   1.489       .  S
C193        C194   1.531       .  S
C193        C199   1.538       .  S
C193        C197   1.549       .  S
C193        C852   1.529       .  S
C194        H201   1.086       .  S
C194        C195   1.362       .  D
C195        C196   1.538       .  S
C195        C420   1.481       .  S
C196        C200   1.538       .  S
C196        C198   1.537       .  S
C196        H202   1.109       .  S
C197        H203   1.081       .  S
C197        C198   1.371       .  D
C198        C468   1.486       .  S
C199        H204   1.086       .  S
C199        C200   1.368       .  D
C200        C985   1.487       .  S
C205        C206   1.538       .  S
C205        C211   1.536       .  S
C205        C209   1.544       .  S
C205        C828   1.532       .  S
C206        H213   1.086       .  S
C206        C207   1.370       .  D
C207        C208   1.545       .  S
C207        C865   1.491       .  S
C208        C212   1.540       .  S
C208        C210   1.542       .  S
C208        H214   1.107       .  S
C209        H215   1.079       .  S
C209        C210   1.369       .  D
C210        C433   1.495       .  S
C211        H216   1.086       .  S
C211        C212   1.364       .  D
C212        C385   1.486       .  S
C217        C218   1.532       .  S
C217        C223   1.534       .  S
C217        C221   1.540       .  S
C217        C481   1.529       .  S
C218        H225   1.085       .  S
C218        C219   1.369       .  D
C219        C220   1.547       .  S
C219        C924   1.493       .  S
C220        C224   1.545       .  S
C220        C222   1.538       .  S
C220        H226   1.108       .  S
C221        H227   1.080       .  S
C221        C222   1.365       .  D
C222        C372   1.483       .  S
C223        H228   1.085       .  S
C223        C224   1.368       .  D
C224        C337   1.492       .  S
C229        C230   1.538       .  S
C229        C235   1.538       .  S
C229        C233   1.545       .  S
C229        C516   1.531       .  S
C230        H237   1.086       .  S
C230        C231   1.367       .  D
C231        C232   1.541       .  S
C231        C300   1.494       .  S
C232        C236   1.544       .  S
C232        C234   1.536       .  S
C232        H238   1.107       .  S
C233        H239   1.080       .  S
C233        C234   1.367       .  D
C234        C324   1.483       .  S
C235        H240   1.086       .  S
C235        C236   1.369       .  D
C236       C1033   1.495       .  S
O241       Ni249   1.923       .  S
O241        C251   1.282   1_655  A
O242       Ni249   1.921       .  S
O242        C252   1.282       .  A
O243       Ni249   1.920       .  S
O243        C253   1.282   1_655  A
O244       Ni249   1.920       .  S
O244        C254   1.282       .  A
O245       Ni250   1.911   1_655  S
O245        C254   1.280       .  A
O246       Ni250   1.905       .  S
O246        C253   1.280       .  A
O247       Ni250   1.918   1_655  S
O247        C252   1.282       .  A
O248       Ni250   1.919       .  S
O248        C251   1.282       .  A
Ni249      Ni250   2.386   1_655  S
C251        C396   1.485       .  S
C252        C289   1.482       .  S
C253        C409   1.476       .  S
C254        C348   1.479       .  S
N255        C260   1.351       .  A
N255        C259   1.352       .  A
N255        H287   1.040       .  S
N256        C263   1.353       .  A
N256        C264   1.352       .  A
N257        C262   1.355       .  A
N257        C261   1.355       .  A
N257        H288   1.040       .  S
N258        C265   1.352       .  A
N258        C266   1.351       .  A
C259        C267   1.388       .  A
C259        C275   1.413       .  A
C260        C276   1.409       .  A
C260        C268   1.386       .  A
C261        C269   1.387       .  A
C261        C278   1.419       .  A
C262        C277   1.416       .  A
C262        C270   1.386       .  A
C263        C275   1.413       .  A
C263        C271   1.384       .  A
C264        C278   1.418       .  A
C264        C272   1.388       .  A
C265        C273   1.386       .  A
C265        C276   1.412       .  A
C266        C274   1.387       .  A
C266        C277   1.413       .  A
C267        C268   1.374       .  A
C267        H279   1.082       .  S
C268        H280   1.082       .  S
C269        C270   1.376       .  A
C269        H281   1.082       .  S
C270        H282   1.082       .  S
C271        C272   1.374       .  A
C271        H283   1.082       .  S
C272        H284   1.082       .  S
C273        C274   1.373       .  A
C273        H285   1.082       .  S
C274        H286   1.082       .  S
C275        C361   1.487       .  S
C276        C313   1.481       .  S
C277        C540   1.489       .  S
C278        C588   1.496       .  S
C289        C290   1.405       .  A
C289        C294   1.406       .  A
C290        C291   1.399       .  A
C290        H303   1.083       .  S
C291        C292   1.404       .  A
C291        H304   1.083       .  S
C292        C293   1.408       .  A
C292        C295   1.488       .  S
C293        C294   1.399       .  A
C293        H305   1.081       .  S
C294        H306   1.083       .  S
C295        H307   1.085       .  S
C295        C296   1.348       .  D
C296        H308   1.085       .  S
C296        C297   1.488       .  S
C297        C298   1.403       .  A
C297        C302   1.407       .  A
C298        C299   1.399       .  A
C298        H309   1.083       .  S
C299        C300   1.405       .  A
C299        H310   1.078       .  S
C300        C301   1.408       .  A
C301        C302   1.399       .  A
C301        H311   1.082       .  S
C302        H312   1.081       .  S
C313        C314   1.402       .  A
C313        C318   1.401       .  A
C314        C315   1.396       .  A
C314        H327   1.083       .  S
C315        C316   1.403       .  A
C315        H328   1.083       .  S
C316        C317   1.409       .  A
C316        C319   1.484       .  S
C317        C318   1.398       .  A
C317        H329   1.081       .  S
C318        H330   1.083       .  S
C319        H331   1.086       .  S
C319        C320   1.346       .  D
C320        H332   1.085       .  S
C320        C321   1.484       .  S
C321        C322   1.403       .  A
C321        C326   1.407       .  A
C322        C323   1.397       .  A
C322        H333   1.083       .  S
C323        C324   1.404       .  A
C323        H334   1.083       .  S
C324        C325   1.405       .  A
C325        C326   1.397       .  A
C325        H335   1.083       .  S
C326        H336   1.082       .  S
C337        C338   1.408       .  A
C337        C342   1.406       .  A
C338        C339   1.397       .  A
C338        H351   1.082       .  S
C339        C340   1.400       .  A
C339        H352   1.083       .  S
C340        C341   1.406       .  A
C340        C343   1.482       .  S
C341        C342   1.399       .  A
C341        H353   1.082       .  S
C342        H354   1.081       .  S
C343        H355   1.087       .  S
C343        C344   1.344       .  D
C344        H356   1.086       .  S
C344        C345   1.480       .  S
C345        C346   1.401       .  A
C345        C350   1.406       .  A
C346        C347   1.397       .  A
C346        H357   1.083       .  S
C347        C348   1.407       .  A
C347        H358   1.083       .  S
C348        C349   1.405       .  A
C349        C350   1.399       .  A
C349        H359   1.083       .  S
C350        H360   1.083       .  S
C361        C362   1.402       .  A
C361        C366   1.403       .  A
C362        C363   1.400       .  A
C362        H375   1.083       .  S
C363        C364   1.405       .  A
C363        H376   1.083       .  S
C364        C365   1.410       .  A
C364        C367   1.490       .  S
C365        C366   1.399       .  A
C365        H377   1.081       .  S
C366        H378   1.083       .  S
C367        H379   1.085       .  S
C367        C368   1.347       .  D
C368        H380   1.085       .  S
C368        C369   1.487       .  S
C369        C370   1.402       .  A
C369        C374   1.410       .  A
C370        C371   1.393       .  A
C370        H381   1.084       .  S
C371        C372   1.404       .  A
C371        H382   1.083       .  S
C372        C373   1.403       .  A
C373        C374   1.404       .  A
C373        H383   1.083       .  S
C374        H384   1.082       .  S
C385        C386   1.405       .  A
C385        C390   1.403       .  A
C386        C387   1.399       .  A
C386        H399   1.083       .  S
C387        C388   1.403       .  A
C387        H400   1.083       .  S
C388        C389   1.407       .  A
C388        C391   1.487       .  S
C389        C390   1.400       .  A
C389        H401   1.082       .  S
C390        H402   1.078       .  S
C391        H403   1.086       .  S
C391        C392   1.346       .  D
C392        H404   1.086       .  S
C392        C393   1.485       .  S
C393        C394   1.402       .  A
C393        C398   1.407       .  A
C394        C395   1.397       .  A
C394        H405   1.083       .  S
C395        C396   1.406       .  A
C395        H406   1.083       .  S
C396        C397   1.408       .  A
C397        C398   1.402       .  A
C397        H407   1.083   1_455  S
C398        H408   1.083       .  S
C409        C410   1.406       .  A
C409        C414   1.404       .  A
C410        C411   1.400       .  A
C410        H423   1.083   1_455  S
C411        C412   1.403       .  A
C411        H424   1.083       .  S
C412        C413   1.406       .  A
C412        C415   1.483       .  S
C413        C414   1.391       .  A
C413        H425   1.082       .  S
C414        H426   1.083       .  S
C415        H427   1.083       .  S
C415        C416   1.346       .  D
C416        H428   1.086       .  S
C416        C417   1.484       .  S
C417        C418   1.402       .  A
C417        C422   1.410       .  A
C418        C419   1.391       .  A
C418        H429   1.084       .  S
C419        C420   1.404       .  A
C419        H430   1.083       .  S
C420        C421   1.403       .  A
C421        C422   1.400       .  A
C421        H431   1.083       .  S
C422        H432   1.079       .  S
C433        C434   1.408       .  A
C433        C438   1.405       .  A
C434        C435   1.397       .  A
C434        H447   1.082       .  S
C435        C436   1.402       .  A
C435        H448   1.083       .  S
C436        C437   1.408       .  A
C436        C439   1.490       .  S
C437        C438   1.399       .  A
C437        H449   1.081       .  S
C438        H450   1.077       .  S
C439        H451   1.085       .  S
C439        C440   1.348       .  D
C440        H452   1.084       .  S
C440        C441   1.489       .  S
C441        C442   1.404       .  A
C441        C446   1.410       .  A
C442        C443   1.397       .  A
C442        H453   1.083       .  S
C443        C444   1.402       .  A
C443        H454   1.083       .  S
C444        C445   1.404       .  A
C445        C446   1.400       .  A
C445        H455   1.083       .  S
C446        H456   1.081       .  S
C457        C458   1.404       .  A
C457        C462   1.403       .  A
C458        C459   1.399       .  A
C458        H471   1.083       .  S
C459        C460   1.404       .  A
C459        H472   1.083       .  S
C460        C461   1.409       .  A
C460        C463   1.488       .  S
C461        C462   1.400       .  A
C461        H473   1.082       .  S
C462        H474   1.083       .  S
C463        H475   1.086       .  S
C463        C464   1.348       .  D
C464        H476   1.086       .  S
C464        C465   1.486       .  S
C465        C466   1.403       .  A
C465        C470   1.408       .  A
C466        C467   1.397       .  A
C466        H477   1.083       .  S
C467        C468   1.405       .  A
C467        H478   1.083       .  S
C468        C469   1.405       .  A
C469        C470   1.401       .  A
C469        H479   1.083       .  S
C470        H480   1.082       .  S
C481        C482   1.412       .  A
C481        C486   1.408       .  A
C482        C483   1.397       .  A
C482        H495   1.076       .  S
C483        C484   1.400       .  A
C483        H496   1.084       .  S
C484        C485   1.406       .  A
C484        C487   1.485       .  S
C485        C486   1.397       .  A
C485        H497   1.081       .  S
C486        H498   1.083       .  S
C487        H499   1.085       .  S
C487        C488   1.346       .  D
C488        H500   1.084       .  S
C488        C489   1.483       .  S
C489        C490   1.404       .  A
C489        C494   1.409       .  A
C490        C491   1.395       .  A
C490        H501   1.083       .  S
C491        C492   1.400       .  A
C491        H502   1.083       .  S
C492        C493   1.401       .  A
C493        C494   1.398       .  A
C493        H503   1.083       .  S
C494        H504   1.081       .  S
C505        C506   1.400       .  A
C505        C510   1.401       .  A
C506        C507   1.398       .  A
C506        H519   1.083       .  S
C507        C508   1.406       .  A
C507        H520   1.083       .  S
C508        C509   1.411       .  A
C508        C511   1.492       .  S
C509        C510   1.400       .  A
C509        H521   1.080       .  S
C510        H522   1.083       .  S
C511        H523   1.084       .  S
C511        C512   1.350       .  D
C512        H524   1.083       .  S
C512        C513   1.491       .  S
C513        C514   1.402       .  A
C513        C518   1.407       .  A
C514        C515   1.398       .  A
C514        H525   1.083       .  S
C515        C516   1.408       .  A
C515        H526   1.083       .  S
C516        C517   1.411       .  A
C517        C518   1.399       .  A
C517        H527   1.076       .  S
C518        H528   1.081       .  S
C529        C530   1.411       .  A
C529        C534   1.407       .  A
C530        C531   1.401       .  A
C530        H543   1.078       .  S
C531        C532   1.404       .  A
C531        H544   1.084       .  S
C532        C533   1.407       .  A
C532        C535   1.494       .  S
C533        C534   1.397       .  A
C533        H545   1.080       .  S
C534        H546   1.083       .  S
C535        H547   1.085       .  S
C535        C536   1.350       .  D
C536        H548   1.083       .  S
C536        C537   1.489       .  S
C537        C538   1.405       .  A
C537        C542   1.410       .  A
C538        C539   1.397       .  A
C538        H549   1.083       .  S
C539        C540   1.402       .  A
C539        H550   1.083       .  S
C540        C541   1.404       .  A
C541        C542   1.402       .  A
C541        H551   1.083       .  S
C542        H552   1.081       .  S
C553        C554   1.404       .  A
C553        C558   1.405       .  A
C554        C555   1.394       .  A
C554        H567   1.083       .  S
C555        C556   1.403       .  A
C555        H568   1.083       .  S
C556        C557   1.410       .  A
C556        C559   1.488       .  S
C557        C558   1.401       .  A
C557        H569   1.080       .  S
C558        H570   1.083       .  S
C559        H571   1.084       .  S
C559        C560   1.347       .  D
C560        H572   1.084       .  S
C560        C561   1.488       .  S
C561        C562   1.402       .  A
C561        C566   1.409       .  A
C562        C563   1.397       .  A
C562        H573   1.083       .  S
C563        C564   1.405       .  A
C563        H574   1.077       .  S
C564        C565   1.406       .  A
C565        C566   1.398       .  A
C565        H575   1.082       .  S
C566        H576   1.081       .  S
C577        C578   1.409       .  A
C577        C582   1.411       .  A
C578        C579   1.397       .  A
C578        H591   1.083       .  S
C579        C580   1.402       .  A
C579        H592   1.083       .  S
C580        C581   1.408       .  A
C580        C583   1.491       .  S
C581        C582   1.404       .  A
C581        H593   1.082       .  S
C582        H594   1.077       .  S
C583        H595   1.086       .  S
C583        C584   1.349       .  D
C584        H596   1.085       .  S
C584        C585   1.491       .  S
C585        C586   1.405       .  A
C585        C590   1.408       .  A
C586        C587   1.402       .  A
C586        H597   1.083       .  S
C587        C588   1.406       .  A
C587        H598   1.083       .  S
C588        C589   1.405       .  A
C589        C590   1.399       .  A
C589        H599   1.083       .  S
C590        H600   1.082       .  S
C601        C602   1.406       .  A
C601        C606   1.405       .  A
C602        C603   1.399       .  A
C602        H615   1.083   1_545  S
C603        C604   1.403       .  A
C603        H616   1.083       .  S
C604        C605   1.408       .  A
C604        C607   1.486       .  S
C605        C606   1.397       .  A
C605        H617   1.082       .  S
C606        H618   1.083       .  S
C607        H619   1.086       .  S
C607        C608   1.346       .  D
C608        H620   1.086       .  S
C608        C609   1.484       .  S
C609        C610   1.402       .  A
C609        C614   1.409       .  A
C610        C611   1.395       .  A
C610        H621   1.084       .  S
C611        C612   1.401       .  A
C611        H622   1.079       .  S
C612        C613   1.403       .  A
C613        C614   1.401       .  A
C613        H623   1.083       .  S
C614        H624   1.082       .  S
C625        C626   1.411       .  A
C625        C630   1.408       .  A
C626        C627   1.399       .  A
C626        H639   1.077       .  S
C627        C628   1.403       .  A
C627        H640   1.084       .  S
C628        C629   1.409       .  A
C628        C631   1.495       .  S
C629        C630   1.400       .  A
C629        H641   1.079       .  S
C630        H642   1.083       .  S
C631        H643   1.085       .  S
C631        C632   1.350       .  D
C632        H644   1.082       .  S
C632        C633   1.490       .  S
C633        C634   1.405       .  A
C633        C638   1.410       .  A
C634        C635   1.398       .  A
C634        H645   1.083       .  S
C635        C636   1.403       .  A
C635        H646   1.083       .  S
C636        C637   1.404       .  A
C637        C638   1.400       .  A
C637        H647   1.083       .  S
C638        H648   1.081       .  S
C649        C650   1.405       .  A
C649        C654   1.405       .  A
C650        C651   1.397       .  A
C650        H663   1.083       .  S
C651        C652   1.401       .  A
C651        H664   1.083       .  S
C652        C653   1.406       .  A
C652        C655   1.479       .  S
C653        C654   1.399       .  A
C653        H665   1.083       .  S
C654        H666   1.083       .  S
C655        H667   1.086       .  S
C655        C656   1.345       .  D
C656        H668   1.087       .  S
C656        C657   1.481       .  S
C657        C658   1.402       .  A
C657        C662   1.405       .  A
C658        C659   1.398       .  A
C658        H669   1.083       .  S
C659        C660   1.406       .  A
C659        H670   1.083       .  S
C660        C661   1.406       .  A
C661        C662   1.397       .  A
C661        H671   1.083       .  S
C662        H672   1.083       .  S
C673        C674   1.400       .  A
C673        C678   1.404       .  A
C674        C675   1.395       .  A
C674        H687   1.083       .  S
C675        C676   1.406       .  A
C675        H688   1.083       .  S
C676        C677   1.412       .  A
C676        C679   1.493       .  S
C677        C678   1.404       .  A
C677        H689   1.080       .  S
C678        H690   1.083       .  S
C679        H691   1.081       .  S
C679        C680   1.351       .  D
C680        H692   1.083       .  S
C680        C681   1.497       .  S
C681        C682   1.407       .  A
C681        C686   1.411       .  A
C682        C683   1.401       .  A
C682        H693   1.083       .  S
C683        C684   1.404       .  A
C683        H694   1.083       .  S
C684        C685   1.403       .  A
C685        C686   1.396       .  A
C685        H695   1.083       .  S
C686        H696   1.078       .  S
C697        C698   1.409       .  A
C697        C702   1.409       .  A
C698        C699   1.394       .  A
C698        H711   1.080       .  S
C699        C700   1.401       .  A
C699        H712   1.084       .  S
C700        C701   1.408       .  A
C700        C703   1.487       .  S
C701        C702   1.400       .  A
C701        H713   1.080       .  S
C702        H714   1.082       .  S
C703        H715   1.086       .  S
C703        C704   1.346       .  D
C704        H716   1.084       .  S
C704        C705   1.485       .  S
C705        C706   1.403       .  A
C705        C710   1.410       .  A
C706        C707   1.397       .  A
C706        H717   1.083       .  S
C707        C708   1.403       .  A
C707        H718   1.083       .  S
C708        C709   1.402       .  A
C709        C710   1.397       .  A
C709        H719   1.083       .  S
C710        H720   1.082       .  S
C721        C722   1.406       .  A
C721        C726   1.405       .  A
C722        C723   1.399       .  A
C722        H735   1.083       .  S
C723        C724   1.403       .  A
C723        H736   1.083       .  S
C724        C725   1.406       .  A
C724        C727   1.482       .  S
C725        C726   1.397       .  A
C725        H737   1.082       .  S
C726        H738   1.083       .  S
C727        H739   1.086       .  S
C727        C728   1.346       .  D
C728        H740   1.086       .  S
C728        C729   1.483       .  S
C729        C730   1.403       .  A
C729        C734   1.407       .  A
C730        C731   1.397       .  A
C730        H741   1.083       .  S
C731        C732   1.404       .  A
C731        H742   1.083       .  S
C732        C733   1.403       .  A
C733        C734   1.398       .  A
C733        H743   1.083       .  S
C734        H744   1.082       .  S
C745        C746   1.401       .  A
C745        C750   1.401       .  A
C746        C747   1.396       .  A
C746        H759   1.083       .  S
C747        C748   1.405       .  A
C747        H760   1.083       .  S
C748        C749   1.410       .  A
C748        C751   1.486       .  S
C749        C750   1.396       .  A
C749        H761   1.080       .  S
C750        H762   1.083       .  S
C751        H763   1.085       .  S
C751        C752   1.346       .  D
C752        H764   1.083       .  S
C752        C753   1.482       .  S
C753        C754   1.401       .  A
C753        C758   1.408       .  A
C754        C755   1.395       .  A
C754        H765   1.084       .  S
C755        C756   1.406       .  A
C755        H766   1.082       .  S
C756        C757   1.403       .  A
C757        C758   1.398       .  A
C757        H767   1.083       .  S
C758        H768   1.082       .  S
C769        C770   1.403       .  A
C769        C774   1.403       .  A
C770        C771   1.397       .  A
C770        H783   1.083       .  S
C771        C772   1.404       .  A
C771        H784   1.083       .  S
C772        C773   1.409       .  A
C772        C775   1.488       .  S
C773        C774   1.398       .  A
C773        H785   1.080       .  S
C774        H786   1.083       .  S
C775        H787   1.085       .  S
C775        C776   1.348       .  D
C776        H788   1.084       .  S
C776        C777   1.487       .  S
C777        C778   1.405       .  A
C777        C782   1.409       .  A
C778        C779   1.398       .  A
C778        H789   1.083       .  S
C779        C780   1.403       .  A
C779        H790   1.083       .  S
C780        C781   1.402       .  A
C781        C782   1.397       .  A
C781        H791   1.083       .  S
C782        H792   1.081       .  S
C793        C794   1.407       .  A
C793        C798   1.408       .  A
C794        C795   1.392       .  A
C794        H807   1.077       .  S
C795        C796   1.397       .  A
C795        H808   1.084       .  S
C796        C797   1.406       .  A
C796        C799   1.478       .  S
C797        C798   1.399       .  A
C797        H809   1.082       .  S
C798        H810   1.081       .  S
C799        H811   1.086       .  S
C799        C800   1.344       .  D
C800        H812   1.086       .  S
C800        C801   1.481       .  S
C801        C802   1.403       .  A
C801        C806   1.408       .  A
C802        C803   1.398       .  A
C802        H813   1.083       .  S
C803        C804   1.404       .  A
C803        H814   1.083       .  S
C804        C805   1.401       .  A
C805        C806   1.393       .  A
C805        H815   1.083       .  S
C806        H816   1.081       .  S
C817        C818   1.401       .  A
C817        C822   1.402       .  A
C818        C819   1.397       .  A
C818        H831   1.083       .  S
C819        C820   1.404       .  A
C819        H832   1.083       .  S
C820        C821   1.410       .  A
C820        C823   1.487       .  S
C821        C822   1.400       .  A
C821        H833   1.082       .  S
C822        H834   1.083       .  S
C823        H835   1.084       .  S
C823        C824   1.348       .  D
C824        H836   1.086       .  S
C824        C825   1.492       .  S
C825        C826   1.403       .  A
C825        C830   1.407       .  A
C826        C827   1.398       .  A
C826        H837   1.083       .  S
C827        C828   1.409       .  A
C827        H838   1.083       .  S
C828        C829   1.411       .  A
C829        C830   1.399       .  A
C829        H839   1.076       .  S
C830        H840   1.080       .  S
C841        C842   1.402       .  A
C841        C846   1.401       .  A
C842        C843   1.399       .  A
C842        H855   1.083       .  S
C843        C844   1.405       .  A
C843        H856   1.083       .  S
C844        C845   1.409       .  A
C844        C847   1.487       .  S
C845        C846   1.397       .  A
C845        H857   1.081       .  S
C846        H858   1.083       .  S
C847        H859   1.085       .  S
C847        C848   1.347       .  D
C848        H860   1.085       .  S
C848        C849   1.488       .  S
C849        C850   1.401       .  A
C849        C854   1.408       .  A
C850        C851   1.396       .  A
C850        H861   1.083       .  S
C851        C852   1.409       .  A
C851        H862   1.083       .  S
C852        C853   1.410       .  A
C853        C854   1.401       .  A
C853        H863   1.077       .  S
C854        H864   1.081       .  S
C865        C866   1.404       .  A
C865        C870   1.407       .  A
C866        C867   1.398       .  A
C866        H879   1.082       .  S
C867        C868   1.404       .  A
C867        H880   1.083       .  S
C868        C869   1.409       .  A
C868        C871   1.492       .  S
C869        C870   1.401       .  A
C869        H881   1.080       .  S
C870        H882   1.082       .  S
C871        H883   1.084       .  S
C871        C872   1.350       .  D
C872        H884   1.084       .  S
C872        C873   1.492       .  S
C873        C874   1.405       .  A
C873        C878   1.409       .  A
C874        C875   1.400       .  A
C874        H885   1.083       .  S
C875        C876   1.405       .  A
C875        H886   1.083       .  S
C876        C877   1.406       .  A
C877        C878   1.399       .  A
C877        H887   1.083       .  S
C878        H888   1.081       .  S
C889        C890   1.404       .  A
C889        C894   1.408       .  A
C890        C891   1.399       .  A
C890        H903   1.083       .  S
C891        C892   1.406       .  A
C891        H904   1.083       .  S
C892        C893   1.409       .  A
C892        C895   1.494       .  S
C893        C894   1.401       .  A
C893        H905   1.080       .  S
C894        H906   1.083       .  S
C895        H907   1.084       .  S
C895        C896   1.351       .  D
C896        H908   1.084       .  S
C896        C897   1.494       .  S
C897        C898   1.405       .  A
C897        C902   1.410       .  A
C898        C899   1.399       .  A
C898        H909   1.083       .  S
C899        C900   1.405       .  A
C899        H910   1.083       .  S
C900        C901   1.403       .  A
C901        C902   1.400       .  A
C901        H911   1.083       .  S
C902        H912   1.080       .  S
C913        C914   1.406       .  A
C913        C918   1.406       .  A
C914        C915   1.399       .  A
C914        H927   1.083       .  S
C915        C916   1.403       .  A
C915        H928   1.083       .  S
C916        C917   1.409       .  A
C916        C919   1.491       .  S
C917        C918   1.402       .  A
C917        H929   1.081       .  S
C918        H930   1.083       .  S
C919        H931   1.085       .  S
C919        C920   1.348       .  D
C920        H932   1.085       .  S
C920        C921   1.491       .  S
C921        C922   1.402       .  A
C921        C926   1.409       .  A
C922        C923   1.397       .  A
C922        H933   1.083       .  S
C923        C924   1.408       .  A
C923        H934   1.082       .  S
C924        C925   1.406       .  A
C925        C926   1.403       .  A
C925        H935   1.082       .  S
C926        H936   1.081       .  S
C937        C938   1.405       .  A
C937        C942   1.406       .  A
C938        C939   1.399       .  A
C938        H951   1.082       .  S
C939        C940   1.405       .  A
C939        H952   1.083       .  S
C940        C941   1.409       .  A
C940        C943   1.492       .  S
C941        C942   1.401       .  A
C941        H953   1.081       .  S
C942        H954   1.082       .  S
C943        H955   1.084       .  S
C943        C944   1.349       .  D
C944        H956   1.085       .  S
C944        C945   1.493       .  S
C945        C946   1.404       .  A
C945        C950   1.411       .  A
C946        C947   1.398       .  A
C946        H957   1.083       .  S
C947        C948   1.406       .  A
C947        H958   1.083       .  S
C948        C949   1.405       .  A
C949        C950   1.402       .  A
C949        H959   1.083       .  S
C950        H960   1.080       .  S
C961        C962   1.404       .  A
C961        C966   1.407       .  A
C962        C963   1.398       .  A
C962        H975   1.083       .  S
C963        C964   1.405       .  A
C963        H976   1.083       .  S
C964        C965   1.410       .  A
C964        C967   1.493       .  S
C965        C966   1.402       .  A
C965        H977   1.081       .  S
C966        H978   1.083       .  S
C967        H979   1.082       .  S
C967        C968   1.351       .  D
C968        H980   1.084       .  S
C968        C969   1.498       .  S
C969        C970   1.405       .  A
C969        C974   1.410       .  A
C970        C971   1.400       .  A
C970        H981   1.083       .  S
C971        C972   1.405       .  A
C971        H982   1.077       .  S
C972        C973   1.407       .  A
C973        C974   1.400       .  A
C973        H983   1.082       .  S
C974        H984   1.079       .  S
C985        C986   1.402       .  A
C985        C990   1.406       .  A
C986        C987   1.397       .  A
C986        H999   1.083       .  S
C987        C988   1.406       .  A
C987       H1000   1.083       .  S
C988        C989   1.410       .  A
C988        C991   1.494       .  S
C989        C990   1.403       .  A
C989       H1001   1.080       .  S
C990       H1002   1.083       .  S
C991       H1003   1.084       .  S
C991        C992   1.351       .  D
C992       H1004   1.084       .  S
C992        C993   1.495       .  S
C993        C994   1.405       .  A
C993        C998   1.410       .  A
C994        C995   1.401       .  A
C994       H1005   1.083       .  S
C995        C996   1.408       .  A
C995       H1006   1.083       .  S
C996        C997   1.405       .  A
C997        C998   1.401       .  A
C997       H1007   1.083       .  S
C998       H1008   1.081       .  S
C1009      C1010   1.405       .  A
C1009      C1014   1.407       .  A
C1010      C1011   1.399       .  A
C1010      H1023   1.083       .  S
C1011      C1012   1.404       .  A
C1011      H1024   1.083       .  S
C1012      C1013   1.409       .  A
C1012      C1015   1.492       .  S
C1013      C1014   1.401       .  A
C1013      H1025   1.081       .  S
C1014      H1026   1.083       .  S
C1015      H1027   1.084       .  S
C1015      C1016   1.350       .  D
C1016      H1028   1.085       .  S
C1016      C1017   1.493       .  S
C1017      C1018   1.405       .  A
C1017      C1022   1.410       .  A
C1018      C1019   1.399       .  A
C1018      H1029   1.083       .  S
C1019      C1020   1.403       .  A
C1019      H1030   1.083       .  S
C1020      C1021   1.405       .  A
C1021      C1022   1.400       .  A
C1021      H1031   1.083       .  S
C1022      H1032   1.081       .  S
C1033      C1034   1.404       .  A
C1033      C1038   1.409       .  A
C1034      C1035   1.398       .  A
C1034      H1047   1.078       .  S
C1035      C1036   1.404       .  A
C1035      H1048   1.083       .  S
C1036      C1037   1.410       .  A
C1036      C1039   1.495       .  S
C1037      C1038   1.403       .  A
C1037      H1049   1.080       .  S
C1038      H1050   1.082       .  S
C1039      H1051   1.084       .  S
C1039      C1040   1.351       .  D
C1040      H1052   1.084       .  S
C1040      C1041   1.496       .  S
C1041      C1042   1.405       .  A
C1041      C1046   1.410       .  A
C1042      C1043   1.401       .  A
C1042      H1053   1.083       .  S
C1043      C1044   1.405       .  A
C1043      H1054   1.083       .  S
C1044      C1045   1.407       .  A
C1045      C1046   1.401       .  A
C1045      H1055   1.083       .  S
C1046      H1056   1.081       .  S
