geometry optimzed in LAMMPS
_audit_creation_date              2020-11-30 
_audit_creation_method            'lammps2cif' 
_symmetry_space_group_name_H-M    'P1' 
_symmetry_Int_Tables_number       1 
_symmetry_cell_setting            triclinic 
loop_ 
_symmetry_equiv_pos_as_xyz 
  x,y,z 
_cell_length_a                    36.766020635738165 
_cell_length_b                    36.74883562183383 
_cell_length_c                    36.78033610716899 
_cell_angle_alpha                 89.87939154963506 
_cell_angle_beta                  89.80273527952542 
_cell_angle_gamma                 89.96190552858742 
loop_ 
_atom_site_label 
_atom_site_type_symbol 
_atom_site_fract_x 
_atom_site_fract_y 
_atom_site_fract_z 
_atom_site_charge 
C1          C  0.14326744  0.88552119  0.46458144     0.02220
C2          C  0.11939913  0.85421022  0.46677972     0.02220
C3          C  0.09569595  0.85314534  0.49782753     0.02220
C4          C  0.11205562  0.86299185  0.53134771     0.02220
C5          C  0.14210048  0.88760392  0.53089977     0.02220
C6          C  0.15110290  0.90554418  0.49766569     0.02220
C7          C  0.11118812  0.11780287  0.52372341     0.02220
C8          C  0.13662456  0.08940960  0.51818052     0.02220
C9          C  0.13407235  0.06547322  0.48837467     0.02220
C10         C  0.12247420  0.08093374  0.45573236     0.02220
C11         C  0.09859538  0.11183393  0.45779244     0.02220
C12         C  0.08757047  0.12575740  0.49301200     0.02220
C13         C  0.90940810  0.11488640  0.46998010     0.02220
C14         C  0.92782721  0.12034611  0.50366085     0.02220
C15         C  0.90695293  0.11320938  0.53561570     0.02220
C16         C  0.87976132  0.08497225  0.53440152     0.02220
C17         C  0.86982070  0.06993411  0.50012947     0.02220
C18         C  0.87939290  0.09044228  0.46894929     0.02220
C19         C  0.91472518  0.86340541  0.46330469     0.02220
C20         C  0.93336084  0.85477429  0.49610139     0.02220
C21         C  0.91531944  0.86407363  0.52948146     0.02220
C22         C  0.88327386  0.88731353  0.52858021     0.02220
C23         C  0.87925097  0.90948667  0.49648694     0.02220
C24         C  0.89002285  0.89365276  0.46261273     0.02220
C25         C  0.47987715  0.10878720  0.09373543     0.02220
C26         C  0.51357248  0.11285957  0.07595001     0.02220
C27         C  0.54563163  0.10902929  0.09743047     0.02220
C28         C  0.54283038  0.09014564  0.13233219     0.02220
C29         C  0.50964435  0.06997404  0.13934594     0.02220
C30         C  0.47759271  0.08689844  0.12545259     0.02220
C31         C  0.54311643  0.09752720  0.86944213     0.02220
C32         C  0.54111227  0.12530338  0.89749514     0.02220
C33         C  0.50720576  0.13118025  0.91612720     0.02220
C34         C  0.47590195  0.12074457  0.89631543     0.02220
C35         C  0.47861561  0.09129349  0.87117446     0.02220
C36         C  0.51264066  0.07352274  0.86722386     0.02220
C37         C  0.47607719  0.89174508  0.12276371     0.02220
C38         C  0.51043761  0.90727358  0.13233532     0.02220
C39         C  0.54082088  0.88301313  0.12953786     0.02220
C40         C  0.54075225  0.85878716  0.09787828     0.02220
C41         C  0.50778340  0.85656790  0.07704351     0.02220
C42         C  0.47546697  0.86391894  0.09626572     0.02220
C43         C  0.47868009  0.89702806  0.87242048     0.02220
C44         C  0.51252617  0.91273072  0.86155420     0.02220
C45         C  0.54490298  0.89301687  0.86983215     0.02220
C46         C  0.54501842  0.86862907  0.90013529     0.02220
C47         C  0.51125652  0.85872517  0.91665996     0.02220
C48         C  0.47865138  0.86809013  0.89841540     0.02220
C49         C  0.10169131  0.46086338  0.87760011     0.02220
C50         C  0.08300562  0.49502191  0.87323820     0.02220
C51         C  0.10170954  0.52718250  0.88483247     0.02220
C52         C  0.12790254  0.52393170  0.91379881     0.02220
C53         C  0.13374909  0.48834064  0.92957605     0.02220
C54         C  0.12657420  0.45707298  0.90747610     0.02220
C55         C  0.14653497  0.52031911  0.10605889     0.02220
C56         C  0.15589353  0.48702056  0.08833587     0.02220
C57         C  0.14481538  0.45531414  0.10641889     0.02220
C58         C  0.11276488  0.45552566  0.12829421     0.02220
C59         C  0.09289837  0.48829051  0.13424028     0.02220
C60         C  0.11235955  0.52139337  0.12639736     0.02220
C61         C  0.91232124  0.52213516  0.12253823     0.02220
C62         C  0.92875223  0.48772559  0.13006629     0.02220
C63         C  0.90539725  0.45692281  0.12524102     0.02220
C64         C  0.87640869  0.45941526  0.09855956     0.02220
C65         C  0.87118731  0.49246261  0.07799176     0.02220
C66         C  0.88528949  0.52485259  0.09445097     0.02220
C67         C  0.90576174  0.45769264  0.86694033     0.02220
C68         C  0.92216880  0.49170831  0.85625862     0.02220
C69         C  0.90041370  0.52324235  0.86366463     0.02220
C70         C  0.87452719  0.52253132  0.89334309     0.02220
C71         C  0.86918179  0.48964012  0.91328497     0.02220
C72         C  0.87490483  0.45755888  0.89214371     0.02220
C73         C  0.12060671  0.90936656  0.77776548     0.42390
N74         N  0.17562202  0.92768641  0.78201838     0.01280
C75         C  0.24960734  0.08309814  0.85158324    -0.06590
H76         H  0.16865098  0.10506852  0.74529849     0.06770
C77         C  0.25196959  0.03665676  0.66700097    -0.06950
Co78       Co  0.18544848  0.99399948  0.82695812     0.74180
N79         N  0.18020402  0.05698371  0.77635968    -0.26120
Co80       Co  0.23644892  0.05557279  0.77623332     0.74070
C81         C  0.22958333  0.06965364  0.66487085     0.42490
N82         N  0.24859947  0.94693639  0.70468338     0.00900
N83         N  0.23736945  0.05492630  0.72047009     0.01000
N84         N  0.21394223  0.04716537  0.88662971    -0.46970
H85         H  0.09966155  0.95684775  0.81334397     0.06760
N86         N  0.15987772  0.03479852  0.79610441     0.01290
N87         N  0.29278526  0.05208535  0.77658408     0.01030
C88         C  0.34859836  0.05885721  0.79045869     0.42630
N89         N  0.23070961  0.92319062  0.72486376    -0.25580
C90         C  0.21351583  0.94396729  0.89108738    -0.06500
N91         N  0.15503562  0.90186560  0.76853436    -0.46690
N92         N  0.31500446  0.07209376  0.79645653    -0.46910
C93         C  0.23499066  0.91032410  0.89273751     0.42410
N94         N  0.21544651  0.03533422  0.85243201     0.01280
N95         N  0.28783611  0.92291051  0.77990227    -0.25600
N96         N  0.15703955  0.95250236  0.80012277    -0.26090
N97         N  0.30672354  0.94602486  0.76004102     0.00920
H98         H  0.30336538  0.88076527  0.81784220     0.06810
H99         H  0.36634100  0.01024635  0.75552789     0.06840
N100        N  0.23538976  0.05681021  0.83173332    -0.26140
N101        N  0.25463981  0.02919878  0.70250657    -0.25760
N102        N  0.23170305  0.92820552  0.83738186     0.01280
C103        C  0.12277139  0.07405865  0.77399382     0.42680
C104        C  0.21124186  0.90130045  0.70335180    -0.07010
N105        N  0.30981002  0.02611811  0.75855831    -0.25750
H106        H  0.26276473  0.02008848  0.64521412     0.06830
N107        N  0.12508144  0.04474019  0.79631659    -0.46980
H108        H  0.19359968  0.87958496  0.71237348     0.06810
C109        C  0.34698702  0.91407137  0.78787141     0.42510
C110        C  0.12154297  0.94302390  0.79930685    -0.06500
Co111      Co  0.23157776  0.92497021  0.78115052     0.73820
N112        N  0.24160127  0.94283266  0.66954486    -0.46690
C113        C  0.23578211  0.07696978  0.88780780     0.42780
N114        N  0.24486828  0.90244953  0.85848248    -0.46680
Co115      Co  0.28056484  0.98692463  0.73038407     0.73890
C116        C  0.34550442  0.02863600  0.76519316    -0.07010
C117        C  0.15911564  0.08194717  0.76087375    -0.06570
N118        N  0.21310758  0.95305580  0.85553667    -0.26100
N119        N  0.22146733  0.07916230  0.69914109    -0.46860
H120        H  0.26446337  0.10604659  0.84068713     0.06790
C121        C  0.31089011  0.90152146  0.79835321    -0.06990
Cl122      Cl  0.23343409  0.99036327  0.77859541    -0.49990
C123        C  0.21794766  0.91462044  0.66679968     0.42540
H124        H  0.19879863  0.95777333  0.91251405     0.06750
N125        N  0.34223714  0.94228339  0.76476356    -0.46700
C126        C  0.09473630  0.10231224  0.77506880     0.42390
N127        N  0.07709315  0.15787591  0.77819697     0.01280
C128        C  0.92314835  0.23037557  0.85532479    -0.06590
H129        H  0.89555881  0.14898535  0.75418674     0.06770
C130        C  0.96906304  0.22417914  0.66609370    -0.06950
Co131      Co  0.01179057  0.16730336  0.82542104     0.74180
N132        N  0.94681589  0.15997278  0.77890249    -0.26120
Co133      Co  0.94769125  0.21582430  0.77683467     0.74070
C134        C  0.93875281  0.19860767  0.66493785     0.42490
N135        N  0.05473380  0.23126271  0.70056978     0.00900
N136        N  0.94857992  0.21411454  0.72021995     0.01000
N137        N  0.96175783  0.19491393  0.88747625    -0.46970
H138        H  0.04778605  0.08277838  0.81194326     0.06760
N139        N  0.97028572  0.13999717  0.79720924     0.01290
N140        N  0.94892942  0.27189646  0.77514191     0.01030
C141        C  0.93681738  0.32796870  0.78421121     0.42630
N142        N  0.07939526  0.21358180  0.71955891    -0.25580
C143        C  0.06142192  0.19776910  0.88760178    -0.06500
N144        N  0.10262708  0.13658314  0.76475783    -0.46690
N145        N  0.92718590  0.29390961  0.79353919    -0.46910
C146        C  0.09421112  0.22024792  0.88879588     0.42410
N147        N  0.97117344  0.19672049  0.85254391     0.01280
N148        N  0.07898489  0.27194391  0.77558184    -0.25600
N149        N  0.05254734  0.13964787  0.79722065    -0.26090
N150        N  0.05430010  0.28999569  0.75683133     0.00920
H151        H  0.12042227  0.28936023  0.81338515     0.06810
H152        H  0.98369092  0.34636387  0.74667054     0.06840
N153        N  0.94817426  0.21633835  0.83322639    -0.26140
N154        N  0.97373228  0.23156512  0.70142047    -0.25760
N155        N  0.07709406  0.21485637  0.83333955     0.01280
C156        C  0.92893838  0.10291127  0.77939206     0.42680
C157        C  0.10084699  0.19502006  0.69641085    -0.07010
N158        N  0.97325857  0.28936207  0.75536585    -0.25750
H159        H  0.98582184  0.23411110  0.64422523     0.06830
N160        N  0.96004374  0.10523135  0.79910170    -0.46980
H161        H  0.12299263  0.17748374  0.70452691     0.06810
C162        C  0.08406763  0.33197363  0.78551829     0.42510
C163        C  0.06153538  0.10411355  0.79698622    -0.06500
Co164      Co  0.07895591  0.21462184  0.77665106     0.73820
N165        N  0.05777155  0.22508386  0.66505765    -0.46690
C166        C  0.93184040  0.21613424  0.89118674     0.42780
N167        N  0.10226370  0.22937364  0.85422261    -0.46680
Co168      Co  0.01406975  0.26132117  0.72770807     0.73890
C169        C  0.96722707  0.32509509  0.75866423    -0.07010
C170        C  0.92014612  0.13907752  0.76680652    -0.06570
N171        N  0.05274122  0.19610747  0.85209126    -0.26100
N172        N  0.92733973  0.19382348  0.69948770    -0.46860
H173        H  0.89915665  0.24500270  0.84659912     0.06790
C174        C  0.09923583  0.29610218  0.79420196    -0.06990
Cl175      Cl  0.01317430  0.21476472  0.77667074    -0.49990
C176        C  0.08661227  0.20257588  0.65978848     0.42540
H177        H  0.04750519  0.18372023  0.90944684     0.06750
N178        N  0.05588398  0.32566872  0.76266413    -0.46700
C179        C  0.09572041  0.87937908  0.22684508     0.42390
N180        N  0.07702928  0.82417504  0.22377062     0.01280
C181        C  0.92270500  0.75204098  0.14625970    -0.06590
H182        H  0.89610107  0.83073477  0.25223993     0.06770
C183        C  0.97097040  0.74689980  0.33398685    -0.06950
Co184      Co  0.01140778  0.81508160  0.17651402     0.74180
N185        N  0.94667589  0.81964063  0.22508601    -0.26120
Co186      Co  0.94849499  0.76298755  0.22450911     0.74070
C187        C  0.94017491  0.77152010  0.33786182     0.42490
N188        N  0.05658303  0.74551683  0.29766592     0.00900
N189        N  0.94998009  0.76138699  0.28122314     0.01000
N190        N  0.96037316  0.78888824  0.11439419    -0.46970
H191        H  0.04863524  0.89972242  0.19073348     0.06760
N192        N  0.96963501  0.84019410  0.20644954     0.01290
N193        N  0.95171767  0.70614433  0.22292016     0.01030
C194        C  0.94497290  0.64999741  0.20895393     0.42630
N195        N  0.08048375  0.76515329  0.27948103    -0.25580
C196        C  0.06208125  0.78760540  0.11249504    -0.06500
N197        N  0.10315575  0.84494333  0.23675549    -0.46690
N198        N  0.93183955  0.68380369  0.20285301    -0.46910
C199        C  0.09558131  0.76590319  0.11096798     0.42410
N200        N  0.97065355  0.78587550  0.14899229     0.01280
N201        N  0.08064102  0.71120216  0.22048420    -0.25600
N202        N  0.05239982  0.84272000  0.20526430    -0.26090
N203        N  0.05722926  0.69173558  0.23944669     0.00920
H204        H  0.12132379  0.69655028  0.18040709     0.06810
H205        H  0.99285890  0.63233945  0.24461360     0.06840
N206        N  0.94815684  0.76534995  0.16814831    -0.26140
N207        N  0.97562165  0.74300797  0.29819502    -0.25760
N208        N  0.07785303  0.76995958  0.16634543     0.01280
C209        C  0.92809212  0.87698471  0.22501425     0.42680
C210        C  0.10322443  0.78062186  0.30331114    -0.07010
N211        N  0.97744223  0.68890216  0.24093583    -0.25750
H212        H  0.98816600  0.73538434  0.35464792     0.06830
N213        N  0.95892065  0.87476440  0.20484143    -0.46980
H214        H  0.12554785  0.79842282  0.29619815     0.06810
C215        C  0.08693569  0.65242018  0.20829652     0.42510
C216        C  0.06201217  0.87814018  0.20560558    -0.06500
Co217      Co  0.07960422  0.76773913  0.22262985     0.73820
N218        N  0.06168173  0.74665743  0.33331898    -0.46690
C219        C  0.93047824  0.76757333  0.11073407     0.42780
N220        N  0.10350885  0.75646013  0.14528993    -0.46680
Co221      Co  0.01667017  0.71674901  0.26979375     0.73890
C222        C  0.97481213  0.65321448  0.23443774    -0.07010
C223        C  0.92018720  0.84056950  0.23840070    -0.06570
N224        N  0.05299888  0.78832818  0.14808421    -0.26100
N225        N  0.92858243  0.77949230  0.30395335    -0.46860
H226        H  0.89909862  0.73679885  0.15509715     0.06790
C227        C  0.10065527  0.68864362  0.19982690    -0.06990
Cl228      Cl  0.01401131  0.76599632  0.22341750    -0.49990
C229        C  0.09082850  0.76822924  0.33923585     0.42540
H230        H  0.04793571  0.80162304  0.09086352     0.06750
N231        N  0.05991846  0.65653457  0.23276430    -0.46700
C232        C  0.35083905  0.77082026  0.07251906     0.42390
N233        N  0.29420528  0.76164651  0.06149805     0.01280
C234        C  0.21312895  0.68770434  0.91049383    -0.06590
H235        H  0.30337759  0.80897302  0.88878532     0.06770
C236        C  0.21415398  0.87868988  0.95402898    -0.06950
Co237      Co  0.28283446  0.71904872  0.99343962     0.74180
N238        N  0.28939750  0.76955350  0.93024971    -0.26120
Co239      Co  0.23260347  0.76871935  0.93238062     0.74070
C240        C  0.23492117  0.88144455  0.92013302     0.42490
N241        N  0.21684703  0.83918426  0.04387596     0.00900
N242        N  0.23175874  0.82534445  0.93608537     0.01000
N243        N  0.24709892  0.65710068  0.95106866    -0.46970
H244        H  0.36824187  0.73943160  0.02127692     0.06760
N245        N  0.30913317  0.75057428  0.95337546     0.01290
N246        N  0.17637418  0.76875530  0.93586230     0.01030
C247        C  0.12092263  0.76529602  0.91833902     0.42630
N248        N  0.23668910  0.81885095  0.06587716    -0.25580
C249        C  0.25021168  0.65391422  0.03616445    -0.06500
N250        N  0.31673740  0.77769084  0.08446582    -0.46690
N251        N  0.15524026  0.75570409  0.91022924    -0.46910
C252        C  0.22912616  0.64889948  0.06955288     0.42410
N253        N  0.25281337  0.69265944  0.95328133     0.01280
N254        N  0.18097873  0.76294364  0.06499361    -0.25600
N255        N  0.31136305  0.74523822  0.03460315    -0.26090
N256        N  0.16111714  0.78300928  0.04280837     0.00920
H257        H  0.16850165  0.73299705  0.11358396     0.06810
H258        H  0.10109321  0.80070763  0.96632842     0.06840
N259        N  0.23290567  0.71142435  0.93019984    -0.26140
N260        N  0.21382414  0.84285358  0.96185458    -0.25760
N261        N  0.23802396  0.70587322  0.06030122     0.01280
C262        C  0.34831891  0.78098680  0.92176196     0.42680
C263        C  0.25115450  0.83989852  0.09145307    -0.06650
N264        N  0.15822117  0.78692347  0.96101027    -0.25750
H265        H  0.19987815  0.89966146  0.96894497     0.06830
N266        N  0.34452254  0.75705855  0.94963640    -0.46980
H267        H  0.26669048  0.83010330  0.11437785     0.06810
C268        C  0.12332515  0.76275221  0.08247619     0.42510
C269        C  0.34722486  0.74920398  0.03944248    -0.06500
Co270      Co  0.23753220  0.76229166  0.06376056     0.73820
N271        N  0.21562706  0.87383612  0.05443801    -0.46690
C272        C  0.22298245  0.65139758  0.92407788     0.42780
N273        N  0.22202611  0.68248308  0.08270446    -0.46680
Co274      Co  0.18681136  0.81372601  0.00245302     0.73890
C275        C  0.12260172  0.78650487  0.95209476    -0.07010
C276        C  0.31171682  0.78963181  0.90931746    -0.06570
N277        N  0.25499788  0.68975596  0.03314584    -0.26100
N278        N  0.24449185  0.84737351  0.91077771    -0.46860
H279        H  0.19275570  0.69489313  0.89060576     0.06790
C280        C  0.15936263  0.74841313  0.09024095    -0.06990
Cl281      Cl  0.23501846  0.76604944  0.99801935    -0.49990
C282        C  0.23726557  0.87625922  0.08413312     0.42540
H283        H  0.26029665  0.63423506  0.01698045     0.06750
N284        N  0.12640247  0.78451791  0.05292407    -0.46700
C285        C  0.08889959  0.20890712  0.33542689     0.42390
N286        N  0.07493501  0.21588664  0.27934438     0.01280
C287        C  0.92155856  0.28861972  0.20247067    -0.06590
H288        H  0.90495247  0.16931340  0.29529413     0.06770
C289        C  0.96318205  0.10001052  0.20167136    -0.06950
Co290      Co  0.00796828  0.25981785  0.26933509     0.74180
N291        N  0.94508752  0.20917573  0.27890031    -0.26120
Co292      Co  0.94466715  0.20966889  0.22202178     0.74070
C293        C  0.93028897  0.09787646  0.22425130     0.42490
N294        N  0.05325881  0.13833904  0.20312074     0.00900
N295        N  0.94779366  0.15342227  0.22106884     0.01000
N296        N  0.96471112  0.32090354  0.23178175    -0.46970
H297        H  0.03904259  0.24177673  0.35422534     0.06760
N298        N  0.96907445  0.22837398  0.29731595     0.01290
N299        N  0.94618446  0.20972208  0.16544324     0.01030
C300        C  0.92769394  0.21363869  0.11040869     0.42630
N301        N  0.07581033  0.15781956  0.22303578    -0.25580
C302        C  0.05198391  0.32415615  0.23473172    -0.06500
N303        N  0.09867022  0.20015310  0.30118476    -0.46690
N304        N  0.91992797  0.22272766  0.14493227    -0.46910
C305        C  0.08393150  0.32673954  0.21128247     0.42410
N306        N  0.96703458  0.28568483  0.23954508     0.01280
N307        N  0.07623674  0.21393761  0.16727075    -0.25600
N308        N  0.04940273  0.23366512  0.29708041    -0.26090
N309        N  0.05367468  0.19476497  0.14716698     0.00920
H310        H  0.12511140  0.24366225  0.15582507     0.06810
H311        H  0.97555957  0.17885114  0.08930677     0.06840
N312        N  0.94268010  0.26620818  0.22203100    -0.26140
N313        N  0.97210916  0.13563503  0.20149158    -0.25760
N314        N  0.07342301  0.27081197  0.22274670     0.01280
C315        C  0.94059333  0.19720760  0.33808792     0.42680
C316        C  0.09958795  0.13551013  0.23868664    -0.07010
N317        N  0.97117899  0.19210728  0.14649690    -0.25750
H318        H  0.97684424  0.07880927  0.18651237     0.06830
N319        N  0.96780734  0.22145140  0.33280129    -0.46980
H320        H  0.12270715  0.14397899  0.25469202     0.06810
C321        C  0.09384092  0.21582711  0.11005286     0.42510
C322        C  0.05591750  0.23083673  0.33272272    -0.06500
Co323      Co  0.07563216  0.21446960  0.22318159     0.73820
N324        N  0.06166920  0.10315842  0.20282556    -0.46690
C325        C  0.93640483  0.32474893  0.20875731     0.42780
N326        N  0.09530265  0.29268386  0.20428726    -0.46680
Co327      Co  0.01266452  0.16453878  0.17363421     0.73890
C328        C  0.96169282  0.19288193  0.11114714    -0.07010
C329        C  0.92569056  0.18886016  0.30239182    -0.06570
N330        N  0.04755270  0.28840736  0.24038147    -0.26100
N331        N  0.92258500  0.13199585  0.23479940    -0.46860
H332        H  0.90042786  0.28045576  0.18383805     0.06790
C333        C  0.10168440  0.22874501  0.14623748    -0.06990
Cl334      Cl  0.01023466  0.21212245  0.22203054    -0.49990
C335        C  0.09046809  0.09939397  0.22525465     0.42540
H336        H  0.03454178  0.34556427  0.24490379     0.06750
N337        N  0.06394911  0.19418523  0.11239386    -0.46700
C338        C  0.22803176  0.92594850  0.33743601     0.42390
N339        N  0.23924637  0.93330142  0.28080292     0.01280
C340        C  0.30604320  0.08657268  0.19659864    -0.06590
H341        H  0.19000640  0.10216157  0.28912915     0.06770
C342        C  0.11991411  0.03726066  0.20145421    -0.06950
Co343      Co  0.28208893  0.00059868  0.26633880     0.74180
N344        N  0.23031241  0.06232500  0.27339038    -0.26120
Co345      Co  0.22919365  0.05933423  0.21684940     0.74070
C346        C  0.11814522  0.07088322  0.22307913     0.42490
N347        N  0.16098901  0.94700264  0.20502671     0.00900
N348        N  0.17361444  0.05413840  0.21790248     0.01000
N349        N  0.34099190  0.04662886  0.22758006    -0.46970
H350        H  0.25995566  0.97738209  0.35275828     0.06760
N351        N  0.25090656  0.04003368  0.29236624     0.01290
N352        N  0.22814251  0.05490680  0.16056485     0.01030
C353        C  0.23171360  0.07067885  0.10453720     0.42630
N354        N  0.18178808  0.92545598  0.22486944    -0.25580
C355        C  0.34757262  0.95710941  0.23445864    -0.06500
N356        N  0.22138753  0.91240933  0.30409198    -0.46690
N357        N  0.24079938  0.08016572  0.13854934    -0.46910
C358        C  0.35171383  0.92375102  0.21346257     0.42410
N359        N  0.30596837  0.04118284  0.23419944     0.01280
N360        N  0.23708197  0.92554345  0.16835215    -0.25600
N361        N  0.25634721  0.96039389  0.29677784    -0.26090
N362        N  0.21623596  0.94641513  0.14785828     0.00920
H363        H  0.26836479  0.87746901  0.15813738     0.06810
H364        H  0.19766695  0.02122303  0.08627613     0.06840
N365        N  0.28512551  0.06374767  0.21580062    -0.26140
N366        N  0.15567914  0.02876830  0.20006040    -0.25760
N367        N  0.29503241  0.93305673  0.22381699     0.01280
C368        C  0.22102199  0.06998945  0.33272767     0.42680
C369        C  0.16097849  0.89998311  0.24034165    -0.07010
N370        N  0.21078455  0.02875753  0.14320250    -0.25750
H371        H  0.09830834  0.02275979  0.18785690     0.06830
N372        N  0.24550930  0.04307888  0.32783560    -0.46980
H373        H  0.17083481  0.87715981  0.25611442     0.06810
C374        C  0.23740180  0.90539969  0.11172990     0.42510
C375        C  0.25087517  0.95797127  0.33273592    -0.06500
Co376      Co  0.23842461  0.92874037  0.22457469     0.73820
N377        N  0.12638089  0.93651850  0.20498344    -0.46690
C378        C  0.34300727  0.07520662  0.20438938     0.42780
N379        N  0.31796950  0.91088577  0.20708221    -0.46680
Co380      Co  0.18513068  0.98764157  0.17317701     0.73890
C381        C  0.21126023  0.03653309  0.10730616    -0.07010
C382        C  0.21062698  0.08255875  0.29655918    -0.06570
N383        N  0.31163869  0.96051462  0.23969742    -0.26100
N384        N  0.15240879  0.07929743  0.23178442    -0.46860
H385        H  0.29651666  0.10743399  0.17817374     0.06790
C386        C  0.25210492  0.89973802  0.14789442    -0.06990
Cl387      Cl  0.23376897  0.99403448  0.22012556    -0.49990
C388        C  0.12434756  0.90725081  0.22729622     0.42540
H389        H  0.36811225  0.97610287  0.24341231     0.06750
N390        N  0.21480377  0.93461482  0.11363322    -0.46700
C391        C  0.23331393  0.09806825  0.07568608     0.42390
N392        N  0.23258082  0.15406802  0.05923110     0.01280
C393        C  0.15770570  0.23724062  0.90967486    -0.06590
H394        H  0.26394653  0.15253688  0.88289125     0.06770
C395        C  0.34578885  0.22914644  0.95492362    -0.06950
Co396      Co  0.18541965  0.16893350  0.99542296     0.74180
N397        N  0.23332888  0.16442832  0.93096656    -0.26120
Co398      Co  0.23543133  0.22097424  0.93377454     0.74070
C399        C  0.34728811  0.20632168  0.92263241     0.42490
N400        N  0.31060777  0.22806546  0.04016040     0.00900
N401        N  0.29183153  0.21959970  0.93410098     0.01000
N402        N  0.12463894  0.20064281  0.94651916    -0.46970
H403        H  0.19499238  0.08169012  0.02887288     0.06760
N404        N  0.21387880  0.14413362  0.95341249     0.01290
N405        N  0.23721354  0.27763122  0.93822768     0.01030
C406        C  0.22629743  0.33486449  0.93082474     0.42630
N407        N  0.29170724  0.20806273  0.06329931    -0.25580
C408        C  0.12333130  0.19543188  0.04742726    -0.06500
N409        N  0.24516085  0.13156133  0.08401927    -0.46690
N410        N  0.21888870  0.30120699  0.91808646    -0.46910
C411        C  0.12243042  0.21456569  0.08218073     0.42410
N412        N  0.15939897  0.20144915  0.95635097     0.01280
N413        N  0.23685324  0.26635584  0.06861926    -0.25600
N414        N  0.21260003  0.13765765  0.03448789    -0.26090
N415        N  0.25545319  0.28629299  0.04525048     0.00920
H416        H  0.20039556  0.28006235  0.11264952     0.06810
H417        H  0.26086120  0.34951787  0.98092788     0.06840
N418        N  0.17922352  0.22179644  0.93430436    -0.26140
N419        N  0.31032466  0.23565483  0.96014638    -0.25760
N420        N  0.17780460  0.21127193  0.06361305     0.01280
C421        C  0.23488073  0.10667358  0.91427015     0.42680
C422        C  0.31478040  0.18643044  0.08164326    -0.07010
N423        N  0.25561759  0.29342918  0.96452181    -0.25750
H424        H  0.36760952  0.23733747  0.97274968     0.06830
N425        N  0.21328631  0.10924902  0.94392501    -0.46980
H426        H  0.30729592  0.16609819  0.10158174     0.06810
C427        C  0.22834491  0.32506535  0.07943367     0.42510
C428        C  0.21127598  0.10184761  0.04268503    -0.06500
Co429      Co  0.23479835  0.21001949  0.06441757     0.73820
N430        N  0.34598693  0.22085963  0.04132582    -0.46690
C431        C  0.12165055  0.22316175  0.91744071     0.42780
N432        N  0.15709171  0.22317564  0.09040341    -0.46680
Co433      Co  0.28372869  0.26168718  0.00267073     0.73890
C434        C  0.25059118  0.32961393  0.96197870    -0.07010
C435        C  0.24799468  0.14309343  0.90576069    -0.06570
N436        N  0.15877016  0.19490589  0.03801975    -0.26100
N437        N  0.31286518  0.20116153  0.91140187    -0.46860
H438        H  0.16697596  0.25274823  0.88639162     0.06790
C439        C  0.21915143  0.28848044  0.09155306    -0.06990
Cl440      Cl  0.23476055  0.21550001  0.99908915    -0.49990
C441        C  0.35072841  0.19522958  0.06729294     0.42540
H442        H  0.10150917  0.18223017  0.03288919     0.06750
N443        N  0.25055105  0.32162687  0.05032277    -0.46700
C444        C  0.79922985  0.05959258  0.33827479     0.42390
N445        N  0.78734640  0.05159039  0.28196484     0.01280
C446        C  0.70732459  0.90314011  0.20096833    -0.06590
H447        H  0.82818775  0.88130897  0.29022912     0.06770
C448        C  0.89922268  0.93944269  0.20149105    -0.06950
Co449      Co  0.74052442  0.98684032  0.26938935     0.74180
N450        N  0.78826297  0.92179905  0.27525348    -0.26120
Co451      Co  0.78803602  0.92379151  0.21859655     0.74070
C452        C  0.89972890  0.90506322  0.22188981     0.42490
N453        N  0.86360394  0.03151472  0.20503511     0.00900
N454        N  0.84469325  0.92422284  0.21793072     0.01000
N455        N  0.67698084  0.94480742  0.23420935    -0.46970
H456        H  0.76445719  0.01059413  0.35551058     0.06760
N457        N  0.76950653  0.94549389  0.29454545     0.01290
N458        N  0.78852178  0.92825068  0.16231413     0.01030
C459        C  0.78452392  0.91313597  0.10623032     0.42630
N460        N  0.84407859  0.05411690  0.22500559    -0.25580
C461        C  0.67807246  0.03399170  0.23941682    -0.06500
N462        N  0.80611145  0.07231410  0.30455453    -0.46690
N463        N  0.77419972  0.90413416  0.14020556    -0.46910
C464        C  0.67464875  0.06529324  0.21501270     0.42410
N465        N  0.71269057  0.94808629  0.23833714     0.01280
N466        N  0.78850045  0.05642257  0.16946897    -0.25600
N467        N  0.76926723  0.02554482  0.29881507    -0.26090
N468        N  0.80771940  0.03406192  0.14901774     0.00920
H469        H  0.75734375  0.10412425  0.15850010     0.06810
H470        H  0.82251748  0.95978959  0.08829012     0.06840
N471        N  0.73106837  0.92415609  0.21898986    -0.26140
N472        N  0.86383884  0.94931177  0.20065379    -0.25760
N473        N  0.73111095  0.05422650  0.22516234     0.01280
C474        C  0.80048431  0.91602088  0.33421142     0.42680
C475        C  0.86599669  0.07855250  0.23998221    -0.07010
N476        N  0.80812809  0.95292028  0.14500112    -0.25750
H477        H  0.92133584  0.95352699  0.18806255     0.06830
N478        N  0.77641614  0.94327433  0.32972004    -0.46980
H479        H  0.85716372  0.10196024  0.25547320     0.06810
C480        C  0.78501656  0.07293703  0.11199866     0.42510
C481        C  0.77489459  0.02859503  0.33468176    -0.06500
Co482      Co  0.78774864  0.05478487  0.22544453     0.73820
N483        N  0.89859432  0.04070829  0.20402946    -0.46690
C484        C  0.67116290  0.91679207  0.21109332     0.42780
N485        N  0.70886652  0.07650657  0.20745775    -0.46680
Co486      Co  0.83672449  0.99202697  0.17419732     0.73890
C487        C  0.80739180  0.94553153  0.10917619    -0.07010
C488        C  0.80852746  0.90174549  0.29803429    -0.06570
N489        N  0.71361700  0.02863307  0.24310090    -0.26100
N490        N  0.86501161  0.89753397  0.23065413    -0.46860
H491        H  0.71467463  0.88141155  0.18259606     0.06790
C492        C  0.77284760  0.08125726  0.14856283    -0.06990
Cl493      Cl  0.78832036  0.98933275  0.22192856    -0.49990
C494        C  0.90198712  0.06990890  0.22619134     0.42540
H495        H  0.65753289  0.01729210  0.25195621     0.06750
N496        N  0.80723744  0.04356962  0.11408281    -0.46700
C497        C  0.67095397  0.20234953  0.06863894     0.42390
N498        N  0.72813286  0.21399611  0.06132849     0.01280
C499        C  0.81083227  0.28689355  0.91043570    -0.06590
H500        H  0.72000859  0.16696761  0.89421663     0.06770
C501        C  0.80950476  0.09793017  0.95396951    -0.06950
Co502      Co  0.74189349  0.25861375  0.99507294     0.74180
N503        N  0.73548972  0.20785096  0.93316167    -0.26120
Co504      Co  0.79188442  0.20792480  0.93388008     0.74070
C505        C  0.78831309  0.09596140  0.92033449     0.42490
N506        N  0.80609711  0.13725025  0.04378276     0.00900
N507        N  0.79224172  0.15162399  0.93700767     0.01000
N508        N  0.77687368  0.31933507  0.94996146    -0.46970
H509        H  0.65601440  0.23650156  0.01850592     0.06760
N510        N  0.71660233  0.22790256  0.95610276     0.01290
N511        N  0.84801993  0.20762528  0.93657731     0.01030
C512        C  0.90347970  0.21240450  0.91913070     0.42630
N513        N  0.78542072  0.15741500  0.06515679    -0.25580
C514        C  0.77692805  0.32267930  0.03603187    -0.06500
N515        N  0.70473987  0.19509581  0.08147132    -0.46690
N516        N  0.86906975  0.22135499  0.91105051    -0.46910
C517        C  0.80207823  0.32565225  0.06605149     0.42410
N518        N  0.77250535  0.28392056  0.95485365     0.01280
N519        N  0.84166148  0.21254151  0.06601143    -0.25600
N520        N  0.71189770  0.23211631  0.03512214    -0.26090
N521        N  0.86206810  0.19319943  0.04361652     0.00920
H522        H  0.85332784  0.24285809  0.11439483     0.06810
H523        H  0.92364783  0.17701364  0.96709455     0.06840
N524        N  0.79193252  0.26440433  0.93199565    -0.26140
N525        N  0.81026581  0.13365018  0.96227040    -0.25760
N526        N  0.78642740  0.27012992  0.06091217     0.01280
C527        C  0.67699080  0.19502248  0.93006247     0.42680
C528        C  0.76934334  0.13629631  0.08964597    -0.07010
N529        N  0.86624451  0.18959393  0.96168537    -0.25750
H530        H  0.82354228  0.07652779  0.96848489     0.06830
N531        N  0.68144995  0.22111294  0.95505546    -0.46980
H532        H  0.75287202  0.14608295  0.11196366     0.06810
C533        C  0.89921526  0.21470928  0.08280990     0.42510
C534        C  0.67590136  0.22674977  0.03770257    -0.06500
Co535      Co  0.78523411  0.21354729  0.06419846     0.73820
N536        N  0.80666203  0.10255478  0.05414812    -0.46690
C537        C  0.80050962  0.32350958  0.92207054     0.42780
N538        N  0.80695994  0.29227676  0.08043185    -0.46680
Co539      Co  0.83706089  0.16261489  0.00299970     0.73890
C540        C  0.90194740  0.19075310  0.95279044    -0.07010
C541        C  0.71250277  0.18667169  0.91461492    -0.06570
N542        N  0.76931678  0.28718712  0.03445228    -0.26100
N543        N  0.77907787  0.13023008  0.91161152    -0.46860
H544        H  0.82989270  0.27809121  0.89004260     0.06790
C545        C  0.86280144  0.22746071  0.09117934    -0.06990
Cl546      Cl  0.78910591  0.21062497  0.99905497    -0.49990
C547        C  0.78356297  0.10008875  0.08283937     0.42540
H548        H  0.76816107  0.34330979  0.01699387     0.06750
N549        N  0.89686877  0.19291291  0.05330296    -0.46700
C550        C  0.08652314  0.77734387  0.66186864     0.42390
N551        N  0.07694517  0.76585378  0.71850002     0.01280
C552        C  0.92425543  0.69397777  0.79783100    -0.06590
H553        H  0.90976982  0.81323651  0.70408400     0.06770
C554        C  0.96502661  0.88098124  0.79755034    -0.06950
Co555      Co  0.01048530  0.72084588  0.72978709     0.74180
N556        N  0.94823179  0.77204609  0.72080008    -0.26120
Co557      Co  0.94689010  0.77174689  0.77733655     0.74070
C558        C  0.93249566  0.88301026  0.77456500     0.42490
N559        N  0.05533604  0.84164153  0.79662442     0.00900
N560        N  0.95013086  0.82763903  0.77800324     0.01000
N561        N  0.96700121  0.66077216  0.76839040    -0.46970
H562        H  0.03737625  0.74329440  0.64443924     0.06760
N563        N  0.97168848  0.75194980  0.70257119     0.01290
N564        N  0.94668415  0.77188436  0.83396402     0.01030
C565        C  0.92700154  0.76798883  0.88886248     0.42630
N566        N  0.07824351  0.82217698  0.77684735    -0.25580
C567        C  0.05407493  0.65531326  0.76260978    -0.06500
N568        N  0.09824057  0.78454481  0.69596371    -0.46690
N569        N  0.91970659  0.75938857  0.85414775    -0.46910
C570        C  0.08592356  0.65126924  0.78597410     0.42410
N571        N  0.96967471  0.69578813  0.76025575     0.01280
N572        N  0.07719905  0.76550496  0.83214014    -0.25600
N573        N  0.05126733  0.74789484  0.70125542    -0.26090
N574        N  0.05428906  0.78495163  0.85196428     0.00920
H575        H  0.12520707  0.73500675  0.84492516     0.06810
H576        H  0.97529346  0.80167316  0.91054974     0.06840
N577        N  0.94537907  0.71566796  0.77764778    -0.26140
N578        N  0.97407940  0.84536738  0.79782084    -0.25760
N579        N  0.07611234  0.70828687  0.77520515     0.01280
C580        C  0.94484095  0.78375452  0.66169429     0.42680
C581        C  0.10266175  0.84446773  0.76200442    -0.07010
N582        N  0.97169087  0.78891198  0.85316320    -0.25750
H583        H  0.97831680  0.90221119  0.81287872     0.06830
N584        N  0.97082759  0.75844809  0.66713486    -0.46980
H585        H  0.12612437  0.83600214  0.74632510     0.06810
C586        C  0.09292358  0.76349404  0.89008166     0.42510
C587        C  0.05520829  0.75338584  0.66543024    -0.06500
Co588      Co  0.07792783  0.76547574  0.77560427     0.73820
N589        N  0.06398345  0.87674227  0.79741234    -0.46690
C590        C  0.93924487  0.65800824  0.79234731     0.42780
N591        N  0.09740965  0.68548240  0.79337799    -0.46680
Co592      Co  0.01402795  0.81585570  0.82581559     0.73890
C593        C  0.96150037  0.78812338  0.88846942    -0.07010
C594        C  0.92991285  0.79298905  0.69719665    -0.06570
N595        N  0.05011675  0.69130121  0.75752118    -0.26100
N596        N  0.92512655  0.84893904  0.76397237    -0.46860
H597        H  0.90239759  0.70263894  0.81547373     0.06790
C598        C  0.10169638  0.75029555  0.85391891    -0.06990
Cl599      Cl  0.01244204  0.76847596  0.77739939    -0.49990
C600        C  0.09336979  0.88048574  0.77558415     0.42540
H601        H  0.03601736  0.63448482  0.75247619     0.06750
N602        N  0.06346102  0.78544149  0.88694325    -0.46700
C603        C  0.90145459  0.07399011  0.77980266     0.42390
N604        N  0.84649226  0.05430407  0.78061868     0.01280
C605        C  0.77449606  0.89624502  0.84890570    -0.06590
H606        H  0.85956699  0.87757153  0.74379530     0.06770
C607        C  0.77708263  0.95227850  0.66298412    -0.06950
Co608      Co  0.83734635  0.98686782  0.82466688     0.74180
N609        N  0.84561840  0.92556654  0.77327771    -0.26120
Co610      Co  0.78923501  0.92452327  0.77223663     0.74070
C611        C  0.80163877  0.92113237  0.65860823     0.42490
N612        N  0.76940954  0.03496308  0.70458045     0.00900
N613        N  0.78962426  0.92890823  0.71547280     0.01000
N614        N  0.80770065  0.93429064  0.88392192    -0.46970
H615        H  0.92157425  0.02584875  0.81472099     0.06760
N616        N  0.86461074  0.94809418  0.79365246     0.01290
N617        N  0.73231751  0.92454961  0.77218785     0.01030
C618        C  0.67576559  0.91286294  0.78234432     0.42630
N619        N  0.78856412  0.05850899  0.72346926    -0.25580
C620        C  0.80892764  0.03427925  0.88977672    -0.06500
N621        N  0.86720993  0.08118992  0.76905750    -0.46690
N622        N  0.71015226  0.90227890  0.79012623    -0.46910
C623        C  0.78744287  0.06773702  0.89243525     0.42410
N624        N  0.80803943  0.94443303  0.84916234     0.01280
N625        N  0.73338595  0.05449638  0.78058493    -0.25600
N626        N  0.86498015  0.02943673  0.79882365    -0.26090
N627        N  0.71506011  0.03060944  0.76124102     0.00920
H628        H  0.71692069  0.09616689  0.81845569     0.06810
H629        H  0.65767522  0.96122669  0.74709693     0.06840
N630        N  0.78944687  0.92194934  0.82834864    -0.26140
N631        N  0.77135301  0.95492323  0.69895187    -0.25760
N632        N  0.79034597  0.05130701  0.83659186     0.01280
C633        C  0.90380285  0.91047366  0.77257646     0.42680
C634        C  0.80421981  0.08188733  0.70008352    -0.07010
N635        N  0.71461061  0.95009989  0.75446906    -0.25750
H636        H  0.76593317  0.97039177  0.64269351     0.06830
N637        N  0.89969759  0.93939849  0.79488184    -0.46980
H638        H  0.82222738  0.10394437  0.70731486     0.06810
C639        C  0.67411404  0.06044234  0.79013911     0.42510
C640        C  0.90023024  0.03956905  0.79987252    -0.06500
Co641      Co  0.78983732  0.05535466  0.78021431     0.73820
N642        N  0.77118897  0.04069432  0.66921176    -0.46690
C643        C  0.78632164  0.90431168  0.88558314     0.42780
N644        N  0.77723622  0.07647235  0.85844599    -0.46680
Co645      Co  0.74198140  0.99265647  0.72921185     0.73890
C646        C  0.67887105  0.94429127  0.75825000    -0.07010
C647        C  0.86806706  0.90138501  0.75858048    -0.06570
N648        N  0.80904807  0.02615557  0.85406936    -0.26100
N649        N  0.80821500  0.90837965  0.69244525    -0.46860
H650        H  0.75942535  0.87318356  0.83875447     0.06790
C651        C  0.70981924  0.07480272  0.79960802    -0.06990
Cl652      Cl  0.78965294  0.98987300  0.77656583    -0.49990
C653        C  0.79204555  0.07032685  0.66400848     0.42540
H654        H  0.82411243  0.02014212  0.91061047     0.06750
N655        N  0.67958178  0.03334490  0.76608030    -0.46700
C656        C  0.78476861  0.88518509  0.07819060     0.42390
N657        N  0.78941615  0.82927964  0.06292056     0.01280
C658        C  0.86267692  0.75049942  0.90994733    -0.06590
H659        H  0.75503188  0.83055537  0.88606013     0.06770
C660        C  0.67429846  0.75665853  0.96469968    -0.06950
Co661      Co  0.83558438  0.81672400  0.99744333     0.74180
N662        N  0.78557538  0.82041132  0.93439987    -0.26120
Co663      Co  0.78440145  0.76426920  0.93756201     0.74070
C664        C  0.67124234  0.77911884  0.93205115     0.42490
N665        N  0.71359706  0.75304651  0.04866424     0.00900
N666        N  0.72739795  0.76551020  0.94078060     0.01000
N667        N  0.89578297  0.78672365  0.94680282    -0.46970
H668        H  0.82116052  0.90366101  0.03024929     0.06760
N669        N  0.80552680  0.84113135  0.95573547     0.01290
N670        N  0.78326744  0.70759771  0.94199952     0.01030
C671        C  0.79009746  0.65013610  0.93363744     0.42630
N672        N  0.73294085  0.77295315  0.07113804    -0.25580
C673        C  0.90011368  0.79110753  0.04855665    -0.06500
N674        N  0.77533412  0.85115265  0.08742091    -0.46690
N675        N  0.79949825  0.68336164  0.92072496    -0.46910
C676        C  0.90168248  0.77118456  0.08321548     0.42410
N677        N  0.86121883  0.78496329  0.95747147     0.01280
N678        N  0.79040607  0.71703809  0.07063862    -0.25600
N679        N  0.80798232  0.84664813  0.03746583    -0.26090
N680        N  0.77069173  0.69725560  0.04823063     0.00920
H681        H  0.83215251  0.70322806  0.10960834     0.06810
H682        H  0.75236974  0.63680072  0.98204604     0.06840
N683        N  0.84122280  0.76462040  0.93566017    -0.26140
N684        N  0.70998382  0.74966684  0.96796043    -0.25760
N685        N  0.84618263  0.77421200  0.06534507     0.01280
C686        C  0.78476626  0.87718786  0.91482365     0.42680
C687        C  0.71006288  0.79072690  0.09350868    -0.07010
N688        N  0.76447035  0.69221915  0.96837463    -0.25750
H689        H  0.65328328  0.74830548  0.98357010     0.06830
N690        N  0.80670668  0.87548804  0.94430488    -0.46980
H691        H  0.71781745  0.80964863  0.11457534     0.06810
C692        C  0.80342896  0.65864631  0.07718717     0.42510
C693        C  0.80687889  0.88252945  0.04499309    -0.06500
Co694      Co  0.78969068  0.77343374  0.06813735     0.73820
N695        N  0.67815402  0.75615464  0.05437717    -0.46690
C696        C  0.89875742  0.76510549  0.91717954     0.42780
N697        N  0.86727163  0.76212401  0.09160336    -0.46680
Co698      Co  0.73891586  0.72244786  0.00839858     0.73890
C699        C  0.76617649  0.65612073  0.96472383    -0.07010
C700        C  0.77074688  0.84084954  0.90858640    -0.06570
N701        N  0.86446056  0.79130167  0.03953640    -0.26100
N702        N  0.70530541  0.78412360  0.91919893    -0.46860
H703        H  0.85336152  0.73524360  0.88664381     0.06790
C704        C  0.81186554  0.69493333  0.09013907    -0.06990
Cl705      Cl  0.78722358  0.76920797  0.00284367    -0.49990
C706        C  0.67371654  0.77882825  0.08289042     0.42540
H707        H  0.92170204  0.80460876  0.03374111     0.06750
N708        N  0.77805900  0.66209778  0.05093987    -0.46700
C709        C  0.92168910  0.58715424  0.86541075    -0.05850
C710        C  0.90887484  0.55805486  0.84426281     0.00080
C711        C  0.90558555  0.56305130  0.80582184    -0.08490
C712        C  0.91671193  0.59602003  0.79045629    -0.05870
C713        C  0.92919073  0.62460349  0.81164232     0.00070
C714        C  0.93182851  0.62056559  0.84981674    -0.08400
C715        C  0.94581989  0.65089852  0.87400540     0.61980
H716        H  0.92375076  0.58348375  0.89451366     0.12670
H717        H  0.91460251  0.59995110  0.76126535     0.12680
C718        C  0.88931317  0.53648572  0.77897919     0.62210
F719        F  0.95171522  0.63901653  0.90925004    -0.22950
F720        F  0.92058284  0.67869099  0.87540051    -0.20280
F721        F  0.97840547  0.66416554  0.86053817    -0.19960
F722        F  0.85972136  0.55226561  0.76203838    -0.20010
F723        F  0.87784043  0.50477488  0.79492773    -0.20340
F724        F  0.91465008  0.52865568  0.75225784    -0.23010
C725        C  0.80691777  0.60255888  0.88904054    -0.05850
C726        C  0.80973956  0.61624074  0.92434080     0.00080
C727        C  0.83196386  0.59770049  0.94957491    -0.08490
C728        C  0.85484261  0.56994987  0.93705556    -0.05870
C729        C  0.85134941  0.55491916  0.90245432     0.00070
C730        C  0.82471578  0.57016429  0.87878538    -0.08400
C731        C  0.81195037  0.55297306  0.84384145     0.61980
H732        H  0.78855524  0.61578991  0.87014110     0.12670
H733        H  0.87479351  0.55890843  0.95512668     0.12680
C734        C  0.83117894  0.60564382  0.98977527     0.62210
F735        F  0.77450367  0.54934945  0.84488124    -0.22950
F736        F  0.82629646  0.51880932  0.83822693    -0.20280
F737        F  0.82098885  0.57552478  0.81515680    -0.19960
F738        F  0.79720430  0.59786635  0.00376616    -0.20010
F739        F  0.84006434  0.64163521  0.99605499    -0.20340
F740        F  0.85526390  0.58363004  0.00806816    -0.23010
C741        C  0.93481128  0.36058884  0.84317084    -0.05850
C742        C  0.92728825  0.36031773  0.80567839     0.00080
C743        C  0.91213522  0.39117593  0.78905576    -0.08490
C744        C  0.90653435  0.42212675  0.81029246    -0.05870
C745        C  0.91668744  0.42406936  0.84704133     0.00070
C746        C  0.93062211  0.39242598  0.86422258    -0.08400
C747        C  0.94218040  0.39244574  0.90387900     0.61980
H748        H  0.94564028  0.33605364  0.85540233     0.12670
H749        H  0.89142582  0.44432460  0.79888366     0.12680
C750        C  0.90045369  0.39092093  0.74946799     0.62210
F751        F  0.95419426  0.35852459  0.91505163    -0.22950
F752        F  0.91363083  0.40190989  0.92637066    -0.20280
F753        F  0.97024419  0.41700874  0.90838057    -0.19960
F754        F  0.87718689  0.36200809  0.74343172    -0.20010
F755        F  0.93056997  0.38752397  0.72717921    -0.20340
F756        F  0.88251382  0.42262545  0.73982905    -0.23010
C757        C  0.81051394  0.38948284  0.93297413    -0.05850
C758        C  0.81464860  0.35928068  0.90960311     0.00080
C759        C  0.82820904  0.36593482  0.87390751    -0.08490
C760        C  0.84380722  0.40013878  0.86685383    -0.05870
C761        C  0.84725777  0.42644723  0.89423628     0.00070
C762        C  0.81925935  0.42460076  0.92043942    -0.08400
C763        C  0.78534873  0.44699130  0.91250395     0.61980
H764        H  0.79426181  0.38681809  0.95746698     0.12670
H765        H  0.85072089  0.40695077  0.83959669     0.12680
C766        C  0.82565616  0.33889977  0.84282142     0.62210
F767        F  0.76549628  0.43021789  0.88535465    -0.22950
F768        F  0.79380403  0.48164537  0.90048516    -0.20280
F769        F  0.76350238  0.44937209  0.94315419    -0.19960
F770        F  0.79294904  0.32036711  0.84397351    -0.20010
F771        F  0.85439995  0.31473733  0.84464362    -0.20340
F772        F  0.82746964  0.35622805  0.80939882    -0.23010
C773        C  0.95294555  0.57302843  0.14047928    -0.05850
C774        C  0.92036321  0.55423120  0.14646974     0.00080
C775        C  0.89590118  0.56783699  0.17377460    -0.08490
C776        C  0.90538887  0.59878095  0.19375680    -0.05870
C777        C  0.93698167  0.61795322  0.18640822     0.00070
C778        C  0.96059442  0.60581261  0.15864962    -0.08400
C779        C  0.99331753  0.62797117  0.14796270     0.61980
H780        H  0.97176785  0.56267696  0.12030205     0.12670
H781        H  0.88749181  0.60850513  0.21518029     0.12680
C782        C  0.85968660  0.55165775  0.18420673     0.62210
F783        F  0.01740047  0.62764916  0.17633232    -0.22950
F784        F  0.98320916  0.66345813  0.14045967    -0.20280
F785        F  0.01027569  0.61404174  0.11752748    -0.19960
F786        F  0.86154649  0.53781344  0.21915385    -0.20010
F787        F  0.84951178  0.52463042  0.16138099    -0.20340
F788        F  0.83299491  0.57822569  0.18300612    -0.23010
C789        C  0.82919771  0.56168696  0.09774757    -0.05850
C790        C  0.86611675  0.56036678  0.08780998     0.00080
C791        C  0.88307589  0.59311853  0.07567584    -0.08490
C792        C  0.86222044  0.62538824  0.07482569    -0.05870
C793        C  0.82490682  0.62539082  0.08322958     0.00070
C794        C  0.80819098  0.59327736  0.09544078    -0.08400
C795        C  0.76859998  0.59278930  0.10748275     0.61980
H796        H  0.81676901  0.53783289  0.10879011     0.12670
H797        H  0.87464321  0.65036081  0.06511904     0.12680
C798        C  0.92126824  0.59545714  0.05996659     0.62210
F799        F  0.75863303  0.55953944  0.12221604    -0.22950
F800        F  0.74629006  0.59965130  0.07809024    -0.20280
F801        F  0.76296739  0.61918868  0.13367746    -0.19960
F802        F  0.91970670  0.60724949  0.02428094    -0.20010
F803        F  0.93930562  0.56259195  0.06027881    -0.20340
F804        F  0.94122688  0.62058459  0.07934707    -0.23010
C805        C  0.93831239  0.39746068  0.13413265    -0.05850
C806        C  0.91205584  0.42226262  0.14692510     0.00080
C807        C  0.89390484  0.41340793  0.18045514    -0.08490
C808        C  0.90321970  0.38168286  0.19952302    -0.05870
C809        C  0.92908216  0.35755471  0.18658280     0.00070
C810        C  0.94633090  0.36473749  0.15292809    -0.08400
C811        C  0.97741049  0.34143116  0.13977971     0.61980
H812        H  0.95302038  0.40399503  0.10943899     0.12670
H813        H  0.88982591  0.37550593  0.22516702     0.12680
C814        C  0.86469396  0.43543595  0.19869851     0.62210
F815        F  0.97247154  0.30496761  0.14738346    -0.22950
F816        F  0.98190799  0.34453650  0.10256981    -0.20280
F817        F  0.00806533  0.35330241  0.15741482    -0.19960
F818        F  0.83463558  0.41371750  0.20534803    -0.20010
F819        F  0.85403035  0.46377873  0.17783929    -0.20340
F820        F  0.87735320  0.44872402  0.23143681    -0.23010
C821        C  0.87430180  0.39856553  0.07073768    -0.05850
C822        C  0.85537940  0.42607199  0.08940407     0.00080
C823        C  0.81890285  0.41916626  0.10127847    -0.08490
C824        C  0.80317376  0.38554660  0.09336058    -0.05870
C825        C  0.82240718  0.35835421  0.07557523     0.00070
C826        C  0.85861018  0.36435375  0.06423286    -0.08400
C827        C  0.88041761  0.33469112  0.04562061     0.61980
H828        H  0.90192440  0.40384712  0.06198889     0.12670
H829        H  0.77525043  0.38023827  0.10150428     0.12680
C830        C  0.79454144  0.44453876  0.12278065     0.62210
F831        F  0.91500698  0.34635682  0.03624612    -0.22950
F832        F  0.86290829  0.32371439  0.01428316    -0.20280
F833        F  0.88387804  0.30530822  0.06886381    -0.19960
F834        F  0.76237731  0.45011785  0.10410738    -0.20010
F835        F  0.81018365  0.47762575  0.12928522    -0.20340
F836        F  0.78586423  0.42871073  0.15577198    -0.23010
C837        C  0.89702912  0.49647208  0.01568881    -0.05850
C838        C  0.86540020  0.49200621  0.03607954     0.00080
C839        C  0.83266378  0.48949255  0.01489096    -0.08490
C840        C  0.83447533  0.48895278  0.97585077    -0.05870
C841        C  0.86733800  0.48904223  0.95583027     0.00070
C842        C  0.89895029  0.49358387  0.97740595    -0.08400
C843        C  0.93467669  0.50155714  0.96040036     0.61980
H844        H  0.92081748  0.50451154  0.03029456     0.12670
H845        H  0.80952147  0.49107927  0.96121422     0.12680
C846        C  0.79485683  0.48978160  0.03061039     0.62210
F847        F  0.96243519  0.49759874  0.98488371    -0.22950
F848        F  0.93422068  0.53717494  0.94877755    -0.20280
F849        F  0.94114304  0.47778642  0.93240319    -0.19960
F850        F  0.79488047  0.49850490  0.06652567    -0.20010
F851        F  0.77923804  0.45587187  0.02619472    -0.20340
F852        F  0.77377368  0.51552532  0.01295439    -0.23010
C853        C  0.10371865  0.55416333  0.18392941    -0.05850
C854        C  0.10073674  0.55480024  0.14595401     0.00080
C855        C  0.09096803  0.58757446  0.12831156    -0.08490
C856        C  0.08876391  0.61961653  0.14928074    -0.05870
C857        C  0.09249584  0.61871055  0.18738125     0.00070
C858        C  0.09904591  0.58533181  0.20517017    -0.08400
C859        C  0.10408361  0.58311268  0.24613500     0.61980
H860        H  0.11293419  0.52949995  0.19672239     0.12670
H861        H  0.08242777  0.64533351  0.13632550     0.12680
C862        C  0.08174101  0.58826385  0.08813300     0.62210
F863        F  0.11531718  0.54887318  0.25718153    -0.22950
F864        F  0.07157860  0.59069297  0.26350870    -0.20280
F865        F  0.13012880  0.60793614  0.25701535    -0.19960
F866        F  0.05387445  0.56395326  0.08139355    -0.20010
F867        F  0.11145261  0.57853281  0.06761313    -0.20340
F868        F  0.07077816  0.62247877  0.07677938    -0.23010
C869        C  0.18809104  0.61526306  0.11257906    -0.05850
C870        C  0.21443940  0.61445060  0.08472100     0.00080
C871        C  0.22601332  0.57993997  0.07234056    -0.08490
C872        C  0.20292192  0.55035150  0.07858852    -0.05870
C873        C  0.17354540  0.55201406  0.10309317     0.00070
C874        C  0.17487754  0.58219572  0.12699063    -0.08400
C875        C  0.18683838  0.57566470  0.16580624     0.61980
H876        H  0.18352997  0.64032878  0.12737831     0.12670
H877        H  0.21003826  0.52555343  0.06615350     0.12680
C878        C  0.26369839  0.57194484  0.05735409     0.62210
F879        F  0.22441988  0.57744553  0.16735654    -0.22950
F880        F  0.17680024  0.54168947  0.17834194    -0.20280
F881        F  0.17289836  0.60225896  0.18838672    -0.19960
F882        F  0.28850389  0.59852408  0.06686738    -0.20010
F883        F  0.26222358  0.56851162  0.01996936    -0.20340
F884        F  0.27655105  0.53961936  0.07187628    -0.23010
C885        C  0.08218989  0.36021300  0.15345846    -0.05850
C886        C  0.09420674  0.35844476  0.18946511     0.00080
C887        C  0.11391585  0.38750984  0.20448883    -0.08490
C888        C  0.11881053  0.41892469  0.18344635    -0.05870
C889        C  0.10361221  0.42221544  0.14863895     0.00070
C890        C  0.08539003  0.39224381  0.13295727    -0.08400
C891        C  0.06765823  0.39297889  0.09582810     0.61980
H892        H  0.06903780  0.33664437  0.14167238     0.12670
H893        H  0.13462266  0.44133398  0.19405335     0.12680
C894        C  0.13079192  0.38448350  0.24191506     0.62210
F895        F  0.07778354  0.36251765  0.07620458    -0.22950
F896        F  0.07653694  0.42323634  0.07579012    -0.20280
F897        F  0.03049352  0.39309059  0.10013233    -0.19960
F898        F  0.15383983  0.35471790  0.24285658    -0.20010
F899        F  0.10383484  0.38007182  0.26783633    -0.20340
F900        F  0.15076943  0.41512921  0.25070375    -0.23010
C901        C  0.15715283  0.39898329  0.07192847    -0.05850
C902        C  0.16658037  0.42171281  0.10089930     0.00080
C903        C  0.19694669  0.41258109  0.12295144    -0.08490
C904        C  0.21645150  0.38060664  0.11512280    -0.05870
C905        C  0.20638670  0.35774436  0.08653351     0.00070
C906        C  0.17568412  0.36633595  0.06518772    -0.08400
C907        C  0.16204506  0.34083602  0.03590627     0.61980
H908        H  0.13523003  0.40711877  0.05427564     0.12670
H909        H  0.23996363  0.37351808  0.13140721     0.12680
C910        C  0.21091466  0.43565320  0.15414184     0.62210
F911        F  0.13087086  0.35395763  0.01974558    -0.22950
F912        F  0.15397836  0.30724370  0.05084944    -0.20280
F913        F  0.18814200  0.33670480  0.00926580    -0.19960
F914        F  0.19120760  0.46713342  0.15969153    -0.20010
F915        F  0.24659155  0.44543411  0.14714309    -0.20340
F916        F  0.20984563  0.41539097  0.18585569    -0.23010
C917        C  0.03193272  0.48400339  0.10543301    -0.05850
C918        C  0.05072941  0.48725545  0.13811259     0.00080
C919        C  0.02818526  0.48790269  0.17026288    -0.08490
C920        C  0.98902037  0.48869450  0.16714184    -0.05870
C921        C  0.97072888  0.48412434  0.13363832     0.00070
C922        C  0.99393069  0.47917370  0.10281795    -0.08400
C923        C  0.98106075  0.47159709  0.06500562     0.61980
H924        H  0.04750175  0.48414660  0.08063717     0.12670
H925        H  0.97256888  0.49179176  0.19144183     0.12680
C926        C  0.04298052  0.48705839  0.20846068     0.62210
F927        F  0.98412987  0.50377920  0.04601961    -0.22950
F928        F  0.94623531  0.45850966  0.06382535    -0.20280
F929        F  0.00284593  0.44552180  0.04871519    -0.19960
F930        F  0.03715856  0.52042417  0.22477940    -0.20010
F931        F  0.07941534  0.47895371  0.20940614    -0.20340
F932        F  0.02506715  0.46051856  0.22836167    -0.23010
C933        C  0.11487484  0.56011196  0.82702861    -0.05850
C934        C  0.09816553  0.56138891  0.86166062     0.00080
C935        C  0.07887865  0.59408441  0.87101179    -0.08490
C936        C  0.07472013  0.62161838  0.84477633    -0.05870
C937        C  0.09178694  0.62015264  0.81102914     0.00070
C938        C  0.11322180  0.58954896  0.80220909    -0.08400
C939        C  0.13481468  0.58869180  0.76710463     0.61980
H940        H  0.12999865  0.53590104  0.81975378     0.12670
H941        H  0.05850525  0.64549751  0.85114082     0.12680
C942        C  0.06166145  0.60304232  0.90713755     0.62210
F943        F  0.15526171  0.55719916  0.76396123    -0.22950
F944        F  0.15831155  0.61808300  0.76609993    -0.20280
F945        F  0.11145479  0.59073403  0.73779586    -0.19960
F946        F  0.07097341  0.63806699  0.91736769    -0.20010
F947        F  0.07311083  0.58070062  0.93415458    -0.20340
F948        F  0.02425944  0.60102041  0.90407408    -0.23010
C949        C  0.17877292  0.60848101  0.95164468    -0.05850
C950        C  0.20046077  0.61773181  0.92173779     0.00080
C951        C  0.20075167  0.59449693  0.89122458    -0.08490
C952        C  0.17832400  0.56321645  0.89139463    -0.05870
C953        C  0.15414029  0.55510862  0.92024074     0.00070
C954        C  0.15495432  0.57836615  0.95136671    -0.08400
C955        C  0.13235410  0.57396611  0.98544279     0.61980
H956        H  0.17959448  0.62594029  0.97539741     0.12670
H957        H  0.17876973  0.54512761  0.86820994     0.12680
C958        C  0.22503331  0.60269674  0.85887266     0.62210
F959        F  0.11539500  0.60659972  0.99367840    -0.22950
F960        F  0.15526190  0.56467309  0.01362412    -0.20280
F961        F  0.10576128  0.54808604  0.98263384    -0.19960
F962        F  0.26087645  0.60440569  0.87005631    -0.20010
F963        F  0.21523975  0.63573917  0.84374215    -0.20340
F964        F  0.22235765  0.57627688  0.83223666    -0.23010
C965        C  0.11947371  0.38746328  0.80429428    -0.05850
C966        C  0.08818861  0.36584899  0.80784356     0.00080
C967        C  0.06156434  0.37644295  0.83349165    -0.08490
C968        C  0.06516341  0.40963689  0.85214943    -0.05870
C969        C  0.09707410  0.43032584  0.85054211     0.00070
C970        C  0.12459052  0.41943329  0.82526457    -0.08400
C971        C  0.15932239  0.44063660  0.81822113     0.61980
H972        H  0.14023459  0.37929428  0.78495752     0.12670
H973        H  0.04347943  0.41871149  0.86993192     0.12680
C974        C  0.02990446  0.35209899  0.84235155     0.62210
F975        F  0.18892436  0.41914525  0.82701521    -0.22950
F976        F  0.16144844  0.47262008  0.83770672    -0.20280
F977        F  0.16136421  0.44943234  0.78168238    -0.19960
F978        F  0.04127006  0.31668380  0.84815352    -0.20010
F979        F  0.00638164  0.35322478  0.81369142    -0.20340
F980        F  0.01195240  0.36339706  0.87328681    -0.23010
C981        C  0.18803138  0.42941171  0.90972774    -0.05850
C982        C  0.15015841  0.42358771  0.91311778     0.00080
C983        C  0.13819380  0.38741294  0.92190599    -0.08490
C984        C  0.16433594  0.35993473  0.92705478    -0.05870
C985        C  0.20167562  0.36634534  0.92445736     0.00070
C986        C  0.21394593  0.40153540  0.91511439    -0.08400
C987        C  0.25408470  0.40923657  0.90942885     0.61980
H988        H  0.19732100  0.45642498  0.90242221     0.12670
H989        H  0.15528608  0.33263827  0.93390521     0.12680
C990        C  0.09945777  0.37417179  0.92681953     0.62210
F991        F  0.26008988  0.44435421  0.89710407    -0.22950
F992        F  0.26814048  0.38540876  0.88391366    -0.20280
F993        F  0.27252659  0.40491578  0.94180134    -0.19960
F994        F  0.09250839  0.34729564  0.90153718    -0.20010
F995        F  0.07387383  0.40063806  0.92325612    -0.20340
F996        F  0.09515987  0.35924528  0.96099488    -0.23010
C997        C  0.17737597  0.48342529  0.98363702    -0.05850
C998        C  0.14161724  0.48304271  0.96992337     0.00080
C999        C  0.11344511  0.47670625  0.99602271    -0.08490
C1000       C  0.12019094  0.48317088  0.03273459    -0.05870
C1001       C  0.15502804  0.48505252  0.04696078     0.00070
C1002       C  0.18440883  0.47970259  0.02163850    -0.08400
C1003       C  0.22231825  0.46741180  0.03205560     0.61980
H1004       H  0.19990213  0.48413117  0.96460676     0.12670
H1005       H  0.09765477  0.48349381  0.05137252     0.12680
C1006       C  0.07629658  0.46140533  0.98861103     0.62210
F1007       F  0.22908907  0.43387446  0.01640497    -0.22950
F1008       F  0.22672982  0.46396493  0.06915030    -0.20280
F1009       F  0.24764994  0.49197179  0.01893299    -0.19960
F1010       F  0.07319146  0.42778082  0.00520045    -0.20010
F1011       F  0.07021667  0.45643886  0.95263160    -0.20340
F1012       F  0.04992374  0.48433782  0.00262175    -0.23010
C1013       C  0.98047636  0.51709556  0.87864393    -0.05850
C1014       C  0.96416517  0.49655582  0.85133329     0.00080
C1015       C  0.98939967  0.48115867  0.82545139    -0.08490
C1016       C  0.02777636  0.48270340  0.83213842    -0.05870
C1017       C  0.04242607  0.49735541  0.86427216     0.00070
C1018       C  0.01718615  0.51392675  0.88846189    -0.08400
C1019       C  0.02277800  0.51539314  0.92897802     0.61980
H1020       H  0.96308919  0.53213867  0.89621747     0.12670
H1021       H  0.04646769  0.47176351  0.81211530     0.12680
C1022       C  0.97915456  0.46692587  0.78859002     0.62210
F1023       F  0.00412900  0.54407780  0.94460079    -0.22950
F1024       F  0.05791654  0.51875656  0.93929531    -0.20280
F1025       F  0.01007832  0.48289636  0.94261098    -0.19960
F1026       F  0.94403178  0.47528925  0.78007511    -0.20010
F1027       F  0.98433417  0.42968635  0.78758150    -0.20340
F1028       F  0.00090359  0.48284259  0.76218442    -0.23010
C1029       C  0.60700005  0.91920006  0.85949338    -0.05850
C1030       C  0.57812497  0.89795832  0.84638176     0.00080
C1031       C  0.58198843  0.88126880  0.81163442    -0.08490
C1032       C  0.61439679  0.88667842  0.79173590    -0.05870
C1033       C  0.64383714  0.90596222  0.80609189     0.00070
C1034       C  0.64045113  0.92215948  0.84082038    -0.08400
C1035       C  0.67242083  0.94126635  0.85878147     0.61980
H1036       H  0.60333943  0.93333655  0.88476646     0.12670
H1037       H  0.61697400  0.87512264  0.76473366     0.12680
C1038       C  0.55338203  0.85756863  0.79372509     0.62210
F1039       F  0.66175807  0.96092864  0.88897894    -0.22950
F1040       F  0.68917678  0.96543405  0.83530847    -0.20280
F1041       F  0.69744015  0.91533681  0.86951730    -0.19960
F1042       F  0.54160822  0.87438507  0.76219684    -0.20010
F1043       F  0.52356707  0.85073691  0.81550974    -0.20340
F1044       F  0.56868591  0.82439703  0.78465726    -0.23010
C1045       C  0.58149749  0.81284086  0.89376062    -0.05850
C1046       C  0.57864822  0.84753157  0.90964476     0.00080
C1047       C  0.60805239  0.86036363  0.93164236    -0.08490
C1048       C  0.63831810  0.83752946  0.93693364    -0.05870
C1049       C  0.63996637  0.80244875  0.92236249     0.00070
C1050       C  0.61168460  0.79005446  0.89979652    -0.08400
C1051       C  0.61405128  0.75312992  0.88168719     0.61980
H1052       H  0.55971425  0.80374430  0.87622759     0.12670
H1053       H  0.66068325  0.84685293  0.95368056     0.12680
C1054       C  0.61014867  0.89729681  0.95008656     0.62210
F1055       F  0.58443245  0.74650688  0.85953022    -0.22950
F1056       F  0.61544414  0.72615280  0.90791017    -0.20280
F1057       F  0.64519638  0.75149078  0.86052947    -0.19960
F1058       F  0.61641944  0.89367275  0.98690212    -0.20010
F1059       F  0.57909941  0.91754392  0.94560354    -0.20340
F1060       F  0.63934697  0.91625270  0.93621757    -0.23010
C1061       C  0.38852792  0.93535000  0.83546252    -0.05850
C1062       C  0.38019172  0.90898257  0.80955168     0.00080
C1063       C  0.40341000  0.87889803  0.80479343    -0.08490
C1064       C  0.43553240  0.87706321  0.82536896    -0.05870
C1065       C  0.44474296  0.90392496  0.85107679     0.00070
C1066       C  0.42031687  0.93356350  0.85652666    -0.08400
C1067       C  0.42589004  0.96532839  0.88195214     0.61980
H1068       H  0.37004841  0.95813113  0.83890369     0.12670
H1069       H  0.45374479  0.85421107  0.82175770     0.12680
C1070       C  0.39396300  0.84896373  0.77817711     0.62210
F1071       F  0.42554273  0.99658294  0.86144186    -0.22950
F1072       F  0.45805674  0.96453311  0.90079387    -0.20280
F1073       F  0.39751267  0.96697314  0.90664443    -0.19960
F1074       F  0.39078097  0.86341551  0.74358064    -0.20010
F1075       F  0.36125909  0.83320570  0.78817262    -0.20340
F1076       F  0.42023388  0.82197120  0.77734255    -0.23010
C1077       C  0.38356696  0.83813385  0.92929879    -0.05850
C1078       C  0.38154856  0.80300995  0.91464235     0.00080
C1079       C  0.41120525  0.78958380  0.89416642    -0.08490
C1080       C  0.44188600  0.81208168  0.88879908    -0.05870
C1081       C  0.44484137  0.84638296  0.90547147     0.00070
C1082       C  0.41536633  0.85934323  0.92661554    -0.08400
C1083       C  0.41869341  0.89147608  0.95186688     0.61980
H1084       H  0.36052187  0.84841849  0.94455279     0.12670
H1085       H  0.46422309  0.80279275  0.87193734     0.12680
C1086       C  0.41010321  0.75172444  0.87803085     0.62210
F1087       F  0.38615756  0.91030735  0.95406236    -0.22950
F1088       F  0.44535013  0.91541459  0.94184845    -0.20280
F1089       F  0.42798848  0.87847608  0.98552649    -0.19960
F1090       F  0.38075773  0.74885045  0.85478843    -0.20010
F1091       F  0.40653580  0.72633119  0.90562128    -0.20340
F1092       F  0.44144738  0.74377314  0.85864880    -0.23010
C1093       C  0.56981171  0.91210292  0.18632953    -0.05850
C1094       C  0.57139047  0.88648680  0.15764454     0.00080
C1095       C  0.59997596  0.86127301  0.16144939    -0.08490
C1096       C  0.63389822  0.87642138  0.17055228    -0.05870
C1097       C  0.63507209  0.90526537  0.19593562     0.00070
C1098       C  0.60088427  0.91964769  0.20767542    -0.08400
C1099       C  0.59589556  0.93835119  0.24403841     0.61980
H1100       H  0.54436925  0.92482190  0.19339356     0.12670
H1101       H  0.65808196  0.86043246  0.16544496     0.12680
C1102       C  0.59140549  0.82875477  0.18577053     0.62210
F1103       F  0.55949160  0.94265499  0.25285030    -0.22950
F1104       F  0.61147794  0.97219981  0.24348368    -0.20280
F1105       F  0.61182508  0.91761753  0.27108220    -0.19960
F1106       F  0.61707182  0.80174620  0.18105020    -0.20010
F1107       F  0.55721602  0.81490962  0.17918077    -0.20340
F1108       F  0.59207101  0.83913212  0.22195955    -0.23010
C1109       C  0.57501021  0.79933114  0.10735451    -0.05850
C1110       C  0.57168748  0.83309894  0.08942012     0.00080
C1111       C  0.59802319  0.83976818  0.06225293    -0.08490
C1112       C  0.63368952  0.83162533  0.07280230    -0.05870
C1113       C  0.63909397  0.79788231  0.08998973     0.00070
C1114       C  0.60861037  0.78018652  0.10609569    -0.08400
C1115       C  0.61205279  0.74234968  0.12208014     0.61980
H1116       H  0.55175456  0.78824002  0.12157922     0.12670
H1117       H  0.65592433  0.84301259  0.05700628     0.12680
C1118       C  0.58989988  0.82264143  0.02527273     0.62210
F1119       F  0.58048361  0.73182064  0.13979176    -0.22950
F1120       F  0.64035124  0.74134607  0.14676243    -0.20280
F1121       F  0.61912907  0.71772665  0.09458911    -0.19960
F1122       F  0.57332862  0.84730945  0.00317389    -0.20010
F1123       F  0.56758481  0.79253099  0.02911198    -0.20340
F1124       F  0.62101173  0.81066466  0.00761649    -0.23010
C1125       C  0.38170740  0.92295295  0.15396782    -0.05850
C1126       C  0.38333909  0.91426587  0.19090150     0.00080
C1127       C  0.41500246  0.89819208  0.20538208    -0.08490
C1128       C  0.44340507  0.88890558  0.18144025    -0.05870
C1129       C  0.44268338  0.89921243  0.14452828     0.00070
C1130       C  0.41146932  0.91743308  0.13073888    -0.08400
C1131       C  0.40811178  0.93383333  0.09310848     0.61980
H1132       H  0.35749342  0.93623239  0.14355332     0.12670
H1133       H  0.46768141  0.87589713  0.19185773     0.12680
C1134       C  0.41917695  0.89227591  0.24595994     0.62210
F1135       F  0.40171917  0.97070590  0.09630538    -0.22950
F1136       F  0.37893421  0.91819061  0.07539266    -0.20280
F1137       F  0.43878269  0.92958190  0.07212032    -0.19960
F1138       F  0.39134649  0.87043332  0.25881335    -0.20010
F1139       F  0.41789840  0.92548939  0.26353823    -0.20340
F1140       F  0.45198993  0.87584029  0.25439609    -0.23010
C1141       C  0.41857541  0.84785231  0.06427673    -0.05850
C1142       C  0.44324784  0.83963444  0.09190221     0.00080
C1143       C  0.43596885  0.80938955  0.11519019    -0.08490
C1144       C  0.40517315  0.78769944  0.10838818    -0.05870
C1145       C  0.38148506  0.79554876  0.07980184     0.00070
C1146       C  0.38724344  0.82691051  0.05836315    -0.08400
C1147       C  0.36124544  0.83706987  0.02814380     0.61980
H1148       H  0.42409236  0.87103349  0.04738450     0.12670
H1149       H  0.39975049  0.76416224  0.12540197     0.12680
C1150       C  0.45897131  0.79847369  0.14761570     0.62210
F1151       F  0.36718336  0.87187760  0.01545109    -0.22950
F1152       F  0.32558479  0.83583551  0.03994136    -0.20280
F1153       F  0.36594048  0.81277086  0.00007504    -0.19960
F1154       F  0.43823923  0.80149062  0.17893802    -0.20010
F1155       F  0.48966986  0.81943388  0.15175736    -0.20340
F1156       F  0.46988457  0.76264958  0.14381800    -0.23010
C1157       C  0.49994888  0.82411708  0.01643889    -0.05850
C1158       C  0.50645965  0.85679326  0.03564402     0.00080
C1159       C  0.51021182  0.88931749  0.01423017    -0.08490
C1160       C  0.51182460  0.88702907  0.97627645    -0.05870
C1161       C  0.50941495  0.85438456  0.95736813     0.00070
C1162       C  0.50246078  0.82205934  0.97770346    -0.08400
C1163       C  0.49863257  0.78494881  0.96043414     0.61980
H1164       H  0.49491259  0.79949748  0.03193061     0.12670
H1165       H  0.51451616  0.91197924  0.96062886     0.12680
C1166       C  0.51240660  0.92797988  0.02784404     0.62210
F1167       F  0.52186813  0.76062811  0.97726350    -0.22950
F1168       F  0.50709328  0.78517505  0.92386952    -0.20280
F1169       F  0.46327508  0.77287924  0.96486627    -0.19960
F1170       F  0.54585161  0.94258377  0.01858278    -0.20010
F1171       F  0.50784506  0.93072834  0.06428236    -0.20340
F1172       F  0.48541627  0.94864887  0.01166267    -0.23010
C1173       C  0.63531836  0.10657260  0.82038712    -0.05850
C1174       C  0.63849281  0.07161606  0.80532795     0.00080
C1175       C  0.60673082  0.04998814  0.80266257    -0.08490
C1176       C  0.57478442  0.06296794  0.81847851    -0.05870
C1177       C  0.57421434  0.09322840  0.84177623     0.00070
C1178       C  0.60182118  0.11907495  0.83406477    -0.08400
C1179       C  0.59303593  0.15809923  0.82480840     0.61980
H1180       H  0.65742579  0.12579329  0.81699260     0.12670
H1181       H  0.55014067  0.04980449  0.81109795     0.12680
C1182       C  0.60594920  0.01273001  0.78513306     0.62210
F1183       F  0.59814516  0.16341857  0.78786587    -0.22950
F1184       F  0.61617940  0.18127778  0.84296698    -0.20280
F1185       F  0.55731898  0.16651446  0.83231412    -0.19960
F1186       F  0.63165401  0.99114026  0.80156934    -0.20010
F1187       F  0.61272909  0.01565577  0.74825636    -0.20340
F1188       F  0.57282644  0.99542202  0.78952192    -0.23010
C1189       C  0.60424592  0.12324732  0.92036034    -0.05850
C1190       C  0.57441256  0.14479522  0.91000119     0.00080
C1191       C  0.57847999  0.18353512  0.91016862    -0.08490
C1192       C  0.61223488  0.19821557  0.91927038    -0.05870
C1193       C  0.64245839  0.17623052  0.92513715     0.00070
C1194       C  0.63838111  0.13817678  0.92796545    -0.08400
C1195       C  0.66922156  0.11331840  0.93977022     0.61980
H1196       H  0.60145727  0.09426002  0.92073380     0.12670
H1197       H  0.61580464  0.22755194  0.91879242     0.12680
C1198       C  0.55107965  0.21144116  0.89717385     0.62210
F1199       F  0.65664224  0.07907627  0.94931486    -0.22950
F1200       F  0.68664059  0.12772976  0.96976344    -0.20280
F1201       F  0.69382825  0.10919448  0.91164077    -0.19960
F1202       F  0.54279467  0.23500682  0.92516966    -0.20010
F1203       F  0.51975903  0.19619372  0.88459399    -0.20340
F1204       F  0.56591794  0.23167869  0.86902004    -0.23010
C1205       C  0.41571543  0.06918194  0.86739289    -0.05850
C1206       C  0.44660106  0.08142117  0.84861173     0.00080
C1207       C  0.44450982  0.08679651  0.81011071    -0.08490
C1208       C  0.41174526  0.07886630  0.79256261    -0.05870
C1209       C  0.38090189  0.06797340  0.81176857     0.00070
C1210       C  0.38247997  0.06328506  0.84986283    -0.08400
C1211       C  0.34948613  0.05207588  0.87200968     0.61980
H1212       H  0.41800502  0.06387554  0.89620515     0.12670
H1213       H  0.41000410  0.08179093  0.76324255     0.12680
C1214       C  0.47491076  0.09973709  0.78506902     0.62210
F1215       F  0.35815868  0.04507698  0.90795375    -0.22950
F1216       F  0.33404006  0.02097343  0.85765806    -0.20280
F1217       F  0.32449035  0.08004888  0.87147495    -0.19960
F1218       F  0.50661639  0.10819564  0.80257370    -0.20010
F1219       F  0.46357160  0.13048042  0.76652820    -0.20340
F1220       F  0.48256265  0.07285884  0.75987799    -0.23010
C1221       C  0.40107674  0.19241485  0.88562001    -0.05850
C1222       C  0.37744430  0.18194329  0.91333315     0.00080
C1223       C  0.38349197  0.14914022  0.93234495    -0.08490
C1224       C  0.41656753  0.13074792  0.92686866    -0.05870
C1225       C  0.44152986  0.14198860  0.90024863     0.00070
C1226       C  0.43221066  0.17197920  0.87735065    -0.08400
C1227       C  0.45271808  0.18372984  0.84357307     0.61980
H1228       H  0.39486435  0.21664158  0.86990264     0.12670
H1229       H  0.42247678  0.10629660  0.94188307     0.12680
C1230       C  0.35407375  0.13284766  0.95632877     0.62210
F1231       F  0.42995279  0.18069877  0.81387558    -0.22950
F1232       F  0.48319799  0.16318106  0.83695423    -0.20280
F1233       F  0.46309673  0.21975395  0.84688322    -0.19960
F1234       F  0.32360208  0.12603413  0.93557470    -0.20010
F1235       F  0.34481230  0.15673443  0.98372570    -0.20340
F1236       F  0.36488344  0.10032549  0.97184474    -0.23010
C1237       C  0.49726973  0.01346831  0.83485082    -0.05850
C1238       C  0.51578156  0.03179033  0.86327764     0.00080
C1239       C  0.53842892  0.00952240  0.88590989    -0.08490
C1240       C  0.53461163  0.97155291  0.88437659    -0.05870
C1241       C  0.51587839  0.95348327  0.85672529     0.00070
C1242       C  0.49935650  0.97526267  0.82951359    -0.08400
C1243       C  0.48569597  0.96044717  0.79366633     0.61980
H1244       H  0.48343440  0.02913314  0.81449190     0.12670
H1245       H  0.54693687  0.95517462  0.90516772     0.12680
C1246       C  0.56922179  0.02357387  0.90950837     0.62210
F1247       F  0.44899346  0.96760286  0.79001377    -0.22950
F1248       F  0.49152030  0.92352382  0.79027893    -0.20280
F1249       F  0.50389540  0.97756078  0.76546686    -0.19960
F1250       F  0.55766911  0.05117706  0.93122049    -0.20010
F1251       F  0.59741362  0.03549636  0.88775012    -0.20340
F1252       F  0.58329649  0.99704204  0.93228679    -0.23010
C1253       C  0.61184121  0.05167756  0.19703669    -0.05850
C1254       C  0.64092918  0.07612530  0.19537544     0.00080
C1255       C  0.63477536  0.11062077  0.17892508    -0.08490
C1256       C  0.60098733  0.11677999  0.16145028    -0.05870
C1257       C  0.57365680  0.08977344  0.16034466     0.00070
C1258       C  0.57711732  0.06235418  0.18710207    -0.08400
C1259       C  0.54918818  0.05694294  0.21689019     0.61980
H1260       H  0.61410082  0.02696446  0.21232742     0.12670
H1261       H  0.59578038  0.14296628  0.14953102     0.12680
C1262       C  0.66309137  0.14053677  0.17959964     0.62210
F1263       F  0.53719181  0.02139948  0.21720496    -0.22950
F1264       F  0.52082108  0.08095040  0.21303341    -0.20280
F1265       F  0.56446517  0.06394026  0.25056576    -0.19960
F1266       F  0.69270871  0.13035641  0.15879919    -0.20010
F1267       F  0.67400016  0.14681693  0.21499102    -0.20340
F1268       F  0.64976870  0.17291938  0.16566211    -0.23010
C1269       C  0.57377730  0.16925147  0.08626672    -0.05850
C1270       C  0.57827959  0.13116009  0.08581197     0.00080
C1271       C  0.61374229  0.11703794  0.07869872    -0.08490
C1272       C  0.64312419  0.14127949  0.07462770    -0.05870
C1273       C  0.63846194  0.17909816  0.07541603     0.00070
C1274       C  0.60316380  0.19348824  0.08141726    -0.08400
C1275       C  0.59665147  0.23416025  0.08472510     0.61980
H1276       H  0.54693413  0.17996255  0.09208108     0.12670
H1277       H  0.67014802  0.13040304  0.06978490     0.12680
C1278       C  0.62264380  0.07714715  0.07504740     0.62210
F1279       F  0.56191498  0.24184043  0.09720995    -0.22950
F1280       F  0.60075564  0.25063945  0.05121091    -0.20280
F1281       F  0.62112826  0.24907234  0.10897342    -0.19960
F1282       F  0.64247818  0.07145073  0.04351970    -0.20010
F1283       F  0.59197581  0.05627126  0.07294735    -0.20340
F1284       F  0.64316310  0.06592642  0.10446598    -0.23010
C1285       C  0.40170258  0.10572742  0.19409479    -0.05850
C1286       C  0.37479655  0.08233695  0.18121020     0.00080
C1287       C  0.37966105  0.06439118  0.14763130    -0.08490
C1288       C  0.41421988  0.06521222  0.13135278    -0.05870
C1289       C  0.44244604  0.08655397  0.14551146     0.00070
C1290       C  0.43497757  0.10983841  0.17568071    -0.08400
C1291       C  0.46098660  0.13793705  0.19108381     0.61980
H1292       H  0.39675589  0.12079198  0.21896012     0.12670
H1293       H  0.41951895  0.04867571  0.10774763     0.12680
C1294       C  0.34841724  0.04504109  0.12898358     0.62210
F1295       F  0.44437391  0.17168981  0.19045110    -0.22950
F1296       F  0.49332813  0.14061464  0.17215869    -0.20280
F1297       F  0.46874453  0.12930460  0.22685728    -0.19960
F1298       F  0.32133036  0.06997106  0.12128113    -0.20010
F1299       F  0.33459204  0.01792055  0.15115325    -0.20340
F1300       F  0.35900954  0.02944571  0.09647964    -0.23010
C1301       C  0.38872840  0.14049699  0.05533274    -0.05850
C1302       C  0.38473773  0.17421627  0.07276030     0.00080
C1303       C  0.41280220  0.18697494  0.09548921    -0.08490
C1304       C  0.44442709  0.16570893  0.09950371    -0.05870
C1305       C  0.44810895  0.13155367  0.08268461     0.00070
C1306       C  0.42005077  0.11885407  0.05976427    -0.08400
C1307       C  0.42267564  0.08386353  0.03813198     0.61980
H1308       H  0.36667475  0.13044206  0.03887136     0.12670
H1309       H  0.46616841  0.17504492  0.11689765     0.12680
C1310       C  0.40826613  0.22198960  0.11678079     0.62210
F1311       F  0.38970629  0.06580940  0.03866737    -0.22950
F1312       F  0.44882543  0.06020021  0.05084277    -0.20280
F1313       F  0.43133515  0.09250546  0.00279990    -0.19960
F1314       F  0.37833260  0.21903932  0.13951024    -0.20010
F1315       F  0.40306740  0.25080058  0.09313162    -0.20340
F1316       F  0.43838495  0.22951145  0.13795047    -0.23010
C1317       C  0.54028252  0.00976522  0.12797647    -0.05850
C1318       C  0.51113417  0.02810140  0.14495117     0.00080
C1319       C  0.48586977  0.00487270  0.16385506    -0.08490
C1320       C  0.48805345  0.96679708  0.15909715    -0.05870
C1321       C  0.51424183  0.94884391  0.13768498     0.00070
C1322       C  0.54240378  0.97164868  0.12275474    -0.08400
C1323       C  0.57636010  0.95954891  0.10176221     0.61980
H1324       H  0.56226704  0.02582503  0.11763805     0.12670
H1325       H  0.47014533  0.95081713  0.17550216     0.12680
C1326       C  0.45955747  0.01554622  0.19402509     0.62210
F1327       F  0.58297564  0.98324196  0.07320663    -0.22950
F1328       F  0.57446308  0.92573315  0.08636665    -0.20280
F1329       F  0.60593005  0.96055554  0.12485952    -0.19960
F1330       F  0.42425973  0.00919696  0.18297749    -0.20010
F1331       F  0.46321095  0.05067624  0.20515441    -0.20340
F1332       F  0.46584251  0.99424065  0.22449820    -0.23010
C1333       C  0.51092550  0.09548578  0.97301914    -0.05850
C1334       C  0.50614195  0.13003943  0.95774002     0.00080
C1335       C  0.49997120  0.15918185  0.98281579    -0.08490
C1336       C  0.50524084  0.15313525  0.02070157    -0.05870
C1337       C  0.51419971  0.11877786  0.03514987     0.00070
C1338       C  0.51672925  0.08918856  0.01034307    -0.08400
C1339       C  0.52546537  0.05014601  0.02091359     0.61980
H1340       H  0.50758424  0.07243227  0.95538072     0.12670
H1341       H  0.50048845  0.17531315  0.03952225     0.12680
C1342       C  0.48367651  0.19561582  0.97305436     0.62210
F1343       F  0.50161425  0.02653120  0.00405266    -0.22950
F1344       F  0.52311384  0.04373921  0.05771187    -0.20280
F1345       F  0.56035438  0.04203993  0.00930273    -0.19960
F1346       F  0.45057168  0.19927170  0.99072410    -0.20010
F1347       F  0.47750955  0.19958877  0.93653357    -0.20340
F1348       F  0.50644963  0.22314093  0.98463806    -0.23010
C1349       C  0.92200853  0.80731211  0.56420388    -0.05850
C1350       C  0.92774197  0.84515643  0.56330335     0.00080
C1351       C  0.93937635  0.86307232  0.59563279    -0.08490
C1352       C  0.94520312  0.84176273  0.62712016    -0.05870
C1353       C  0.93972132  0.80395567  0.62733822     0.00070
C1354       C  0.92798513  0.78633491  0.59551036    -0.08400
C1355       C  0.91970681  0.74584373  0.59526859     0.61980
H1356       H  0.90936011  0.79476476  0.54097627     0.12670
H1357       H  0.95393863  0.85447946  0.65214020     0.12680
C1358       C  0.94561704  0.90404963  0.59768047     0.62210
F1359       F  0.90610855  0.73450469  0.56211485    -0.22950
F1360       F  0.89410740  0.73790690  0.62176950    -0.20280
F1361       F  0.95111428  0.72633810  0.60210643    -0.19960
F1362       F  0.91400931  0.92292655  0.59074647    -0.20010
F1363       F  0.97168436  0.91454961  0.57285861    -0.20340
F1364       F  0.95759159  0.91456671  0.63171977    -0.23010
C1365       C  0.85494937  0.86434953  0.58930831    -0.05850
C1366       C  0.85470382  0.88831002  0.55942949     0.00080
C1367       C  0.82276764  0.90955349  0.55820830    -0.08490
C1368       C  0.81143301  0.92526584  0.59123677    -0.05870
C1369       C  0.81826766  0.90690550  0.62430439     0.00070
C1370       C  0.83758889  0.87328852  0.62229894    -0.08400
C1371       C  0.83995854  0.84662300  0.65375130     0.61980
H1372       H  0.86674630  0.83805147  0.58678351     0.12670
H1373       H  0.79127971  0.94670330  0.59033323     0.12680
C1374       C  0.79093055  0.89341820  0.53749830     0.62210
F1375       F  0.85497995  0.81365216  0.64343812    -0.22950
F1376       F  0.80559634  0.83952897  0.66745282    -0.20280
F1377       F  0.86178885  0.86110516  0.68044884    -0.19960
F1378       F  0.77161193  0.87019948  0.56014060    -0.20010
F1379       F  0.80254681  0.87300567  0.50831892    -0.20340
F1380       F  0.76746106  0.92037082  0.52574835    -0.23010
C1381       C  0.83111492  0.90591880  0.43197200    -0.05850
C1382       C  0.86920980  0.90401819  0.42859945     0.00080
C1383       C  0.88437629  0.90981605  0.39325908    -0.08490
C1384       C  0.86095463  0.91172192  0.36313421    -0.05870
C1385       C  0.82306497  0.91197745  0.36711275     0.00070
C1386       C  0.80778860  0.91066831  0.40227506    -0.08400
C1387       C  0.76700727  0.91362038  0.40858700     0.61980
H1388       H  0.81932871  0.90351065  0.45835196     0.12670
H1389       H  0.87253464  0.91510383  0.33616696     0.12680
C1390       C  0.92395675  0.91743048  0.38512788     0.62210
F1391       F  0.75764584  0.90735627  0.44454529    -0.22950
F1392       F  0.74894404  0.88836598  0.38747068    -0.20280
F1393       F  0.75530344  0.94823026  0.39958788    -0.19960
F1394       F  0.93702665  0.89225669  0.36047770    -0.20010
F1395       F  0.94515809  0.91723436  0.41570808    -0.20340
F1396       F  0.92713745  0.95135974  0.36942907    -0.23010
C1397       C  0.95358211  0.84004734  0.41307620    -0.05850
C1398       C  0.91997918  0.83910879  0.43115134     0.00080
C1399       C  0.89258709  0.81509483  0.41811371    -0.08490
C1400       C  0.89992263  0.79404245  0.38694890    -0.05870
C1401       C  0.93371458  0.79540691  0.36933360     0.00070
C1402       C  0.96065111  0.81972836  0.38182712    -0.08400
C1403       C  0.99630628  0.82585750  0.36169947     0.61980
H1404       H  0.97417117  0.85844769  0.42208460     0.12670
H1405       H  0.87929258  0.77565808  0.37674141     0.12680
C1406       C  0.85564307  0.80964538  0.43590723     0.62210
F1407       F  0.01445785  0.85650240  0.37383261    -0.22950
F1408       F  0.99019712  0.83021977  0.32487264    -0.20280
F1409       F  0.01870686  0.79656068  0.36725998    -0.19960
F1410       F  0.84994233  0.77289542  0.44183056    -0.20010
F1411       F  0.85212315  0.82693372  0.46898886    -0.20340
F1412       F  0.82891115  0.82243767  0.41279240    -0.23010
C1413       C  0.91607920  0.11891102  0.60298832    -0.05850
C1414       C  0.91279941  0.13617564  0.56905817     0.00080
C1415       C  0.91424018  0.17494354  0.56813734    -0.08490
C1416       C  0.92448440  0.19382352  0.59968110    -0.05870
C1417       C  0.92785618  0.17625463  0.63328321     0.00070
C1418       C  0.92216727  0.13815288  0.63527402    -0.08400
C1419       C  0.92218875  0.11750970  0.67099357     0.61980
H1420       H  0.91396097  0.08974233  0.60423847     0.12670
H1421       H  0.92778571  0.22313507  0.59851194     0.12680
C1422       C  0.90252850  0.19808939  0.53604073     0.62210
F1423       F  0.91914684  0.08027447  0.66616818    -0.22950
F1424       F  0.89264637  0.12867308  0.69135566    -0.20280
F1425       F  0.95412440  0.12399898  0.68964798    -0.19960
F1426       F  0.88162530  0.22702569  0.54813414    -0.20010
F1427       F  0.88142713  0.17907195  0.51176897    -0.20340
F1428       F  0.93284593  0.21180205  0.51851117    -0.23010
C1429       C  0.83171821  0.10662880  0.57589858    -0.05850
C1430       C  0.85590070  0.07825662  0.56669213     0.00080
C1431       C  0.85797136  0.04720046  0.59006634    -0.08490
C1432       C  0.83529890  0.04565401  0.62052882    -0.05870
C1433       C  0.81296483  0.07464507  0.63033116     0.00070
C1434       C  0.81068433  0.10562797  0.60791630    -0.08400
C1435       C  0.78597768  0.13706728  0.61788397     0.61980
H1436       H  0.83041957  0.13026684  0.55831186     0.12670
H1437       H  0.83638754  0.02193952  0.63817944     0.12680
C1438       C  0.88435276  0.01581488  0.58699678     0.62210
F1439       F  0.78702424  0.16448213  0.59203018    -0.22950
F1440       F  0.79668177  0.15154577  0.65082508    -0.20280
F1441       F  0.75051588  0.12483163  0.62082939    -0.19960
F1442       F  0.90286700  0.01154423  0.61944530    -0.20010
F1443       F  0.90970056  0.02079946  0.56055095    -0.20340
F1444       F  0.86542169  0.98424501  0.57980252    -0.23010
C1445       C  0.89743342  0.16597131  0.42718603    -0.05850
C1446       C  0.91911721  0.13578428  0.43636588     0.00080
C1447       C  0.94750012  0.12544802  0.41251552    -0.08490
C1448       C  0.95486359  0.14708431  0.38155482    -0.05870
C1449       C  0.93318679  0.17722367  0.37252292     0.00070
C1450       C  0.90355644  0.18644433  0.39527184    -0.08400
C1451       C  0.87831154  0.21754580  0.38537716     0.61980
H1452       H  0.87498518  0.17295974  0.44484834     0.12670
H1453       H  0.97716324  0.13973806  0.36364996     0.12680
C1454       C  0.97125567  0.09252365  0.41875626     0.62210
F1455       F  0.85152686  0.22280057  0.41138658    -0.22950
F1456       F  0.86152005  0.21012674  0.35262674    -0.20280
F1457       F  0.89804087  0.24941944  0.38209777    -0.19960
F1458       F  0.96035701  0.07074373  0.44723609    -0.20010
F1459       F  0.00570464  0.10472589  0.42634421    -0.20340
F1460       F  0.97151325  0.07120057  0.38783330    -0.23010
C1461       C  0.87392990  0.06117186  0.40888810    -0.05850
C1462       C  0.85881711  0.08455103  0.43489771     0.00080
C1463       C  0.82465942  0.10135947  0.42808945    -0.08490
C1464       C  0.80617616  0.09265849  0.39592415    -0.05870
C1465       C  0.82096591  0.06861392  0.37046926     0.00070
C1466       C  0.85561002  0.05307236  0.37645800    -0.08400
C1467       C  0.87285434  0.02763352  0.34898531     0.61980
H1468       H  0.90004835  0.04885562  0.41451081     0.12670
H1469       H  0.77976809  0.10471754  0.39066701     0.12680
C1470       C  0.80619589  0.12850527  0.45324152     0.62210
F1471       F  0.90736756  0.01721984  0.35948360    -0.22950
F1472       F  0.87592705  0.04481333  0.31569927    -0.20280
F1473       F  0.85167236  0.99679182  0.34530029    -0.19960
F1474       F  0.80134917  0.16098470  0.43480580    -0.20010
F1475       F  0.82560077  0.13566861  0.48443631    -0.20340
F1476       F  0.77243464  0.11530619  0.46340536    -0.23010
C1477       C  0.89979389  0.01168214  0.48712082    -0.05850
C1478       C  0.86717321  0.02903487  0.49561247     0.00080
C1479       C  0.83595042  0.00671626  0.50014298    -0.08490
C1480       C  0.84024574  0.96803158  0.49931173    -0.05870
C1481       C  0.87479505  0.95098527  0.49813180     0.00070
C1482       C  0.90516810  0.97456957  0.49320819    -0.08400
C1483       C  0.94430210  0.96338085  0.49682715     0.61980
H1484       H  0.92288219  0.02797651  0.47948723     0.12670
H1485       H  0.81654982  0.95118341  0.49896890     0.12680
C1486       C  0.79827198  0.02318873  0.50232923     0.62210
F1487       F  0.96272995  0.98687830  0.51938971    -0.22950
F1488       F  0.96092882  0.96410666  0.46316115    -0.20280
F1489       F  0.94706771  0.93002200  0.51252749    -0.19960
F1490       F  0.79115256  0.04189688  0.47059088    -0.20010
F1491       F  0.79572710  0.04679712  0.53129192    -0.20340
F1492       F  0.77172960  0.99684477  0.50667214    -0.23010
C1493       C  0.16494076  0.04094425  0.56828413    -0.05850
C1494       C  0.16499600  0.08458015  0.54410713     0.00080
C1495       C  0.18722419  0.12519560  0.56482670    -0.08490
C1496       C  0.20563071  0.12121295  0.61112092    -0.05870
C1497       C  0.20520195  0.07727661  0.63470155     0.00070
C1498       C  0.18318464  0.03818646  0.61360954    -0.08400
C1499       C  0.17936083  0.00253955  0.63162544     0.61980
H1500       H  0.15078112  0.01756172  0.55905504     0.12670
H1501       H  0.22004420  0.14399407  0.62294098     0.12680
C1502       C  0.19212928  0.16038366  0.54462595     0.62210
F1503       F  0.14442094  0.99020364  0.62579965    -0.22950
F1504       F  0.18513346  0.00485343  0.66856981    -0.20280
F1505       F  0.20400273  0.97924264  0.61562543    -0.19960
F1506       F  0.17512318  0.18827305  0.56325028    -0.20010
F1507       F  0.17800953  0.15814578  0.50995560    -0.20340
F1508       F  0.22882623  0.16805167  0.54210105    -0.23010
C1509       C  0.09130230  0.17282976  0.55942090    -0.05850
C1510       C  0.10885711  0.13864470  0.56080001     0.00080
C1511       C  0.12559627  0.12888093  0.59595248    -0.08490
C1512       C  0.11923470  0.15285956  0.62593496    -0.05870
C1513       C  0.09649893  0.18355816  0.62451752     0.00070
C1514       C  0.08431942  0.19494361  0.58989890    -0.08400
C1515       C  0.06474689  0.23091557  0.58423497     0.61980
H1516       H  0.08280525  0.18289951  0.53356322     0.12670
H1517       H  0.13170414  0.14732146  0.65180644     0.12680
C1518       C  0.14848770  0.09208046  0.60502837     0.62210
F1519       F  0.06277561  0.24051510  0.54787342    -0.22950
F1520       F  0.08288187  0.25855510  0.60208039    -0.20280
F1521       F  0.02966888  0.22817188  0.59723050    -0.19960
F1522       F  0.20782981  0.07527318  0.57887233    -0.20010
F1523       F  0.11834276  0.06931330  0.59870654    -0.20340
F1524       F  0.14457833  0.08986351  0.64325868    -0.23010
C1525       C  0.11383940  0.16906987  0.42645124    -0.05850
C1526       C  0.09518816  0.13559421  0.42501203     0.00080
C1527       C  0.08035929  0.12445195  0.39099441    -0.08490
C1528       C  0.08041211  0.14912590  0.36209568    -0.05870
C1529       C  0.09506621  0.18382132  0.36551402     0.00070
C1530       C  0.11337426  0.19383867  0.39737302    -0.08400
C1531       C  0.13261112  0.23014258  0.40007722     0.61980
H1532       H  0.12869423  0.17580920  0.45091883     0.12670
H1533       H  0.06817748  0.14143793  0.33640717     0.12680
C1534       C  0.06610632  0.08707326  0.38184580     0.62210
F1535       F  0.15015753  0.23416098  0.43306651    -0.22950
F1536       F  0.10766284  0.25807949  0.39647583    -0.20280
F1537       F  0.15826826  0.23285274  0.37260475    -0.19960
F1538       F  0.06025996  0.06585968  0.41217370    -0.20010
F1539       F  0.09059368  0.07024826  0.35889119    -0.20340
F1540       F  0.03372057  0.09007887  0.36315591    -0.23010
C1541       C  0.17508500  0.04269183  0.37326404    -0.05850
C1542       C  0.19758234  0.07232168  0.36519513     0.00080
C1543       C  0.19663435  0.10341817  0.38742890    -0.08490
C1544       C  0.17261012  0.10388510  0.41719434    -0.05870
C1545       C  0.14741957  0.07566383  0.42372865     0.00070
C1546       C  0.14943150  0.04381750  0.40169388    -0.08400
C1547       C  0.12553688  0.01042879  0.40532350     0.61980
H1548       H  0.17665338  0.01870903  0.35614626     0.12670
H1549       H  0.17312896  0.12672508  0.43567470     0.12680
C1550       C  0.22122976  0.13566554  0.37981084     0.62210
F1551       F  0.10937317  0.00319760  0.37222745    -0.22950
F1552       F  0.09835265  0.01384558  0.43080372    -0.20280
F1553       F  0.14700150  0.98110421  0.41467292    -0.19960
F1554       F  0.21332548  0.15002389  0.34596536    -0.20010
F1555       F  0.25716656  0.12452500  0.38034382    -0.20340
F1556       F  0.21683698  0.16297207  0.40533843    -0.23010
C1557       C  0.98541032  0.15569692  0.48605938    -0.05850
C1558       C  0.96895720  0.12717588  0.50581338     0.00080
C1559       C  0.99297615  0.10359767  0.52538140    -0.08490
C1560       C  0.03060404  0.10879292  0.52360668    -0.05870
C1561       C  0.04720673  0.13342778  0.50007134     0.00070
C1562       C  0.02387644  0.15985252  0.48334826    -0.08400
C1563       C  0.03694639  0.19460721  0.46556390     0.61980
H1564       H  0.96809880  0.17508288  0.47227353     0.12670
H1565       H  0.04772742  0.09131541  0.53954755     0.12680
C1566       C  0.98090084  0.06959531  0.54481172     0.62210
F1567       F  0.01582489  0.22354476  0.47726960    -0.22950
F1568       F  0.03359592  0.19180530  0.42826767    -0.20280
F1569       F  0.07223514  0.20279224  0.47464061    -0.19960
F1570       F  0.95247043  0.05490877  0.52662169    -0.20010
F1571       F  0.97191357  0.07723823  0.58020516    -0.20340
F1572       F  0.00753260  0.04322679  0.54564907    -0.23010
C1573       C  0.12950444  0.81496746  0.57542538    -0.05850
C1574       C  0.10397199  0.84164873  0.56515263     0.00080
C1575       C  0.07383685  0.84830368  0.58838298    -0.08490
C1576       C  0.06884352  0.82623354  0.61928914    -0.05870
C1577       C  0.09451456  0.80007262  0.62956449     0.00070
C1578       C  0.12580705  0.79481316  0.60790389    -0.08400
C1579       C  0.15489658  0.76792548  0.61925916     0.61980
H1580       H  0.15280747  0.81045954  0.55794424     0.12670
H1581       H  0.04488357  0.83004987  0.63617462     0.12680
C1582       C  0.04565851  0.87739882  0.58200449     0.62210
F1583       F  0.18330217  0.76662279  0.59450969    -0.22950
F1584       F  0.14005022  0.73346577  0.62209230    -0.20280
F1585       F  0.16882524  0.77804785  0.65263112    -0.19960
F1586       F  0.01389189  0.86031453  0.57215719    -0.20010
F1587       F  0.05534410  0.90208105  0.55539208    -0.20340
F1588       F  0.03973839  0.89666398  0.61376483    -0.23010
C1589       C  0.21662053  0.89155531  0.60400154    -0.05850
C1590       C  0.19723911  0.90544580  0.63354264     0.00080
C1591       C  0.15930698  0.91167775  0.62998271    -0.08490
C1592       C  0.14372094  0.90960638  0.59501743    -0.05870
C1593       C  0.16293820  0.89517589  0.56520282     0.00070
C1594       C  0.19939245  0.88306170  0.57106616    -0.08400
C1595       C  0.22041350  0.85772201  0.54621198     0.61980
H1596       H  0.24509868  0.88474036  0.60762270     0.12670
H1597       H  0.11547929  0.91683699  0.59122849     0.12680
C1598       C  0.13482609  0.91822097  0.66277450     0.62210
F1599       F  0.25363282  0.87291851  0.53711131    -0.22950
F1600       F  0.20201286  0.84955159  0.51489430    -0.20280
F1601       F  0.22690153  0.82543304  0.56445433    -0.19960
F1602       F  0.14831388  0.94550659  0.68464853    -0.20010
F1603       F  0.13243874  0.88649267  0.68285192    -0.20340
F1604       F  0.09997295  0.92801523  0.65253175    -0.23010
C1605       C  0.09253311  0.79558160  0.43932706    -0.05850
C1606       C  0.11861006  0.82366234  0.43821432     0.00080
C1607       C  0.14466026  0.81977970  0.40992766    -0.08490
C1608       C  0.13293185  0.80569626  0.37657323    -0.05870
C1609       C  0.10270359  0.78249793  0.37530776     0.00070
C1610       C  0.08655580  0.77262746  0.40910936    -0.08400
C1611       C  0.06824396  0.73607312  0.41496603     0.61980
H1612       H  0.07848192  0.78988001  0.46412873     0.12670
H1613       H  0.15088372  0.80759278  0.35325893     0.12680
C1614       C  0.18407138  0.81187282  0.41834978     0.62210
F1615       F  0.06653623  0.72720341  0.45154349    -0.22950
F1616       F  0.08809565  0.70909345  0.39773766    -0.20280
F1617       F  0.03332803  0.73638287  0.40165854    -0.19960
F1618       F  0.19003609  0.77478538  0.41549455    -0.20010
F1619       F  0.19308523  0.82183280  0.45318379    -0.20340
F1620       F  0.20653426  0.82923999  0.39365632    -0.23010
C1621       C  0.20073047  0.89641943  0.43207836    -0.05850
C1622       C  0.16253477  0.89609838  0.42997008     0.00080
C1623       C  0.14612648  0.90400099  0.39540748    -0.08490
C1624       C  0.16881759  0.91560301  0.36677557    -0.05870
C1625       C  0.20667538  0.91632701  0.36987324     0.00070
C1626       C  0.22317901  0.90556716  0.40256868    -0.08400
C1627       C  0.26417345  0.90110154  0.40549959     0.61980
H1628       H  0.21318390  0.88651249  0.45657686     0.12670
H1629       H  0.15680197  0.92322679  0.34093932     0.12680
C1630       C  0.10614748  0.90058616  0.38506466     0.62210
F1631       F  0.27432814  0.88653461  0.43869801    -0.22950
F1632       F  0.28111438  0.93442028  0.40170556    -0.20280
F1633       F  0.27642221  0.87794375  0.37848776    -0.19960
F1634       F  0.08536893  0.88143194  0.40925929    -0.20010
F1635       F  0.09119995  0.93478188  0.38107930    -0.20340
F1636       F  0.10332444  0.88259525  0.35213865    -0.23010
C1637       C  0.17444287  0.00926963  0.48450247    -0.05850
C1638       C  0.14030851  0.02482990  0.49181090     0.00080
C1639       C  0.11257984  0.00158828  0.50562801    -0.08490
C1640       C  0.11905155  0.96397392  0.50892335    -0.05870
C1641       C  0.15170767  0.94735318  0.49814083     0.00070
C1642       C  0.18121711  0.97143661  0.48958965    -0.08400
C1643       C  0.22068573  0.96068713  0.49061876     0.61980
H1644       H  0.19658128  0.02718329  0.47675082     0.12670
H1645       H  0.09802849  0.94680030  0.52023886     0.12680
C1646       C  0.07690988  0.01675262  0.51929441     0.62210
F1647       F  0.23904630  0.98324769  0.51440615    -0.22950
F1648       F  0.23588963  0.96457944  0.45646233    -0.20280
F1649       F  0.22524693  0.92576032  0.50283483    -0.19960
F1650       F  0.08364238  0.04029720  0.54737763    -0.20010
F1651       F  0.05420774  0.99005113  0.53297306    -0.20340
F1652       F  0.05912255  0.03478504  0.49152733    -0.23010
C1653       C  0.03433572  0.82071426  0.50652025    -0.05850
C1654       C  0.05400822  0.85177694  0.49449881     0.00080
C1655       C  0.03239654  0.88139794  0.48102812    -0.08490
C1656       C  0.99442427  0.87930120  0.48249439    -0.05870
C1657       C  0.97480416  0.84937004  0.49478954     0.00070
C1658       C  0.99568542  0.81774575  0.50305417    -0.08400
C1659       C  0.98004016  0.77978762  0.50267891     0.61980
H1660       H  0.04939267  0.79749695  0.51669516     0.12670
H1661       H  0.97937310  0.90116568  0.47046049     0.12680
C1662       C  0.04507481  0.91749252  0.46566009     0.62210
F1663       F  0.99993442  0.75859924  0.47875934    -0.22950
F1664       F  0.94442844  0.77929513  0.49089897    -0.20280
F1665       F  0.98249368  0.76449679  0.53690847    -0.19960
F1666       F  0.08169320  0.92095885  0.46336815    -0.20010
F1667       F  0.03196046  0.94515690  0.48728153    -0.20340
F1668       F  0.03095499  0.92224787  0.43111935    -0.23010
loop_ 
_geom_bond_atom_site_label_1 
_geom_bond_atom_site_label_2 
_geom_bond_distance 
_geom_bond_site_symmetry_2 
_ccdc_geom_bond_type 
C1            C2   1.450       .  A
C1            C6   1.453       .  A
C1         C1622   1.505       .  S
C2            C3   1.435       .  A
C2         C1606   1.540       .  S
C3            C4   1.421       .  A
C3         C1654   1.539       .  S
C4            C5   1.428       .  A
C4         C1574   1.498       .  S
C5            C6   1.426       .  A
C5         C1593   1.505       .  S
C6         C1641   1.537       .  S
C7            C8   1.415       .  A
C7           C12   1.456       .  A
C7         C1510   1.568       .  S
C8            C9   1.410       .  A
C8         C1494   1.426       .  S
C9           C10   1.395       .  A
C9         C1638   1.516       .  S
C10          C11   1.437       .  A
C10        C1545   1.503       .  S
C11          C12   1.450       .  A
C11        C1526   1.493       .  S
C12        C1561   1.532       .  S
C13          C14   1.428       .  A
C13          C18   1.424       .  A
C13        C1446   1.496       .  S
C14          C15   1.425       .  A
C14        C1558   1.535       .  S
C15          C16   1.442       .  A
C15        C1414   1.509       .  S
C16          C17   1.426       .  A
C16        C1430   1.494       .  S
C17          C18   1.415       .  A
C17        C1478   1.516       .  S
C18        C1462   1.482       .  S
C19          C20   1.424       .  A
C19          C24   1.435       .  A
C19        C1398   1.495       .  S
C20          C21   1.435       .  A
C20        C1657   1.537       .  S
C21          C22   1.455       .  A
C21        C1350   1.496       .  S
C22          C23   1.441       .  A
C22        C1366   1.544       .  S
C23          C24   1.431       .  A
C23        C1481   1.535       .  S
C24        C1382   1.517       .  S
C25          C26   1.407       .  A
C25          C30   1.418       .  A
C25        C1305   1.493       .  S
C26          C27   1.428       .  A
C26        C1337   1.516       .  S
C27          C28   1.461       .  A
C27        C1270   1.510       .  S
C28          C29   1.450       .  A
C28        C1257   1.534       .  S
C29          C30   1.428       .  A
C29        C1318   1.553       .  S
C30        C1289   1.486       .  S
C31          C32   1.455       .  A
C31          C36   1.429       .  A
C31        C1177   1.536       .  S
C32          C33   1.437       .  A
C32        C1190   1.493       .  S
C33          C34   1.418       .  A
C33        C1334   1.531       .  S
C34          C35   1.428       .  A
C34        C1225   1.492       .  S
C35          C36   1.418       .  A
C35        C1206   1.488       .  S
C36        C1238   1.545       .  S
C37          C38   1.432       .  A
C37          C42   1.414       .  A
C37        C1129   1.489       .  S
C38          C39   1.432       .  A
C38        C1321   1.547       .  S
C39          C40   1.467       .  A
C39        C1094   1.535       .  S
C40          C41   1.439       .  A
C40        C1110   1.510       .  S
C41          C42   1.407       .  A
C41        C1158   1.524       .  S
C42        C1142   1.493       .  S
C43          C44   1.428       .  A
C43          C48   1.429       .  A
C43        C1065   1.498       .  S
C44          C45   1.427       .  A
C44        C1241   1.513       .  S
C45          C46   1.429       .  A
C45        C1030   1.504       .  S
C46          C47   1.427       .  A
C46        C1046   1.501       .  S
C47          C48   1.418       .  A
C47        C1161   1.507       .  S
C48        C1081   1.499       .  S
C49          C50   1.440       .  A
C49          C54   1.439       .  A
C49         C969   1.512       .  S
C50          C51   1.434       .  A
C50        C1017   1.531       .  S
C51          C52   1.443       .  A
C51         C934   1.523       .  S
C52          C53   1.446       .  A
C52         C953   1.518       .  S
C53          C54   1.434       .  A
C53         C998   1.525       .  S
C54         C982   1.519       .  S
C55          C56   1.429       .  A
C55          C60   1.461       .  A
C55         C873   1.535       .  S
C56          C57   1.400       .  A
C56        C1001   1.524       .  S
C57          C58   1.425       .  A
C57         C902   1.485       .  S
C58          C59   1.425       .  A
C58         C889   1.472       .  S
C59          C60   1.440       .  A
C59         C918   1.557       .  S
C60         C854   1.486       .  S
C61          C62   1.428       .  A
C61          C66   1.439       .  A
C61         C774   1.503       .  S
C62          C63   1.433       .  A
C62         C921   1.555       .  S
C63          C64   1.454       .  A
C63         C806   1.522       .  S
C64          C65   1.443       .  A
C64         C822   1.489       .  S
C65          C66   1.435       .  A
C65         C838   1.557       .  S
C66         C790   1.503       .  S
C67          C68   1.442       .  A
C67          C72   1.463       .  A
C67         C745   1.492       .  S
C68          C69   1.434       .  A
C68        C1014   1.564       .  S
C69          C70   1.446       .  A
C69         C710   1.496       .  S
C70          C71   1.426       .  A
C70         C729   1.501       .  S
C71          C72   1.429       .  A
C71         C841   1.566       .  S
C72         C761   1.532       .  S
C73         C110   1.471       .  S
C73         C600   1.462       .  S
C73          N91   1.338       .  A
N74          N91   1.313       .  A
N74          N96   1.319       .  A
N74        Co111   2.060       .  S
C75         C113   1.442       .  S
C75         N100   1.321       .  A
C75         H120   1.081       .  S
H76         C117   1.082       .  S
C77          C81   1.467       .  S
C77         N101   1.338       .  A
C77         H106   1.082       .  S
Co78         N96   2.099       .  S
Co78         N86   2.102   1_565  S
Co78        N118   2.098       .  S
Co78         N94   2.102   1_565  S
Co78       Cl122   2.505       .  S
N79         C117   1.329       .  A
N79          N86   1.321       .  A
N79         Co80   2.069       .  S
Co80         N83   2.051       .  S
Co80        N100   2.042       .  S
Co80         N87   2.075       .  S
Co80       Cl122   2.400   1_545  S
C81        C1497   1.456       .  S
C81         N119   1.341       .  A
N82          N89   1.319       .  A
N82         N112   1.328       .  A
N82        Co115   2.110       .  S
N83         N101   1.316       .  A
N83         N119   1.323       .  A
N84         C113   1.359       .  A
N84          N94   1.333       .  A
H85         C110   1.081       .  S
N86         N107   1.330       .  A
N87         N105   1.319       .  A
N87          N92   1.323       .  A
C88         C116   1.454       .  S
C88        C1209   1.465       .  S
C88          N92   1.345       .  A
N89         C104   1.339       .  A
N89        Co111   2.072       .  S
C90          C93   1.468       .  S
C90         N118   1.349       .  A
C90         H124   1.082       .  S
C93         C240   1.462       .  S
C93         N114   1.342       .  A
N94         N100   1.317       .  A
N95         C121   1.341       .  A
N95          N97   1.316       .  A
N95        Co111   2.070       .  S
N96         C110   1.351       .  A
N97         N125   1.325       .  A
N97        Co115   2.091       .  S
H98         C121   1.081       .  S
H99         C116   1.081       .  S
N101       Co115   2.091   1_545  S
N102        N114   1.316       .  A
N102        N118   1.321       .  A
N102       Co111   2.072       .  S
C103        C117   1.448       .  S
C103        C126   1.463       .  S
C103        N107   1.356       .  A
C104        C123   1.450       .  S
C104        H108   1.080       .  S
N105        C116   1.339       .  A
N105       Co115   2.079   1_545  S
C109        C121   1.456       .  S
C109       C1062   1.472       .  S
C109        N125   1.351       .  A
Co111      Cl122   2.406       .  S
N112        C123   1.358       .  A
C113        C421   1.464       .  S
Co115      Cl122   2.478       .  S
C123       C1590   1.483       .  S
C126        C163   1.462       .  S
C126        N144   1.346       .  A
N127        N144   1.317       .  A
N127        N149   1.322       .  A
N127       Co164   2.087       .  S
C128        C166   1.455       .  S
C128        N153   1.330       .  A
C128        H173   1.082       .  S
H129        C170   1.080       .  S
C130        C134   1.459       .  S
C130        N154   1.340       .  A
C130        H159   1.075       .  S
Co131       N149   2.085       .  S
Co131       N139   2.105   1_455  S
Co131       N171   2.090       .  S
Co131       N147   2.094   1_455  S
Co131      Cl175   2.499       .  S
N132        C170   1.325       .  A
N132        N139   1.318       .  A
N132       Co133   2.054       .  S
Co133       N136   2.084       .  S
Co133       N153   2.074       .  S
Co133       N140   2.062       .  S
Co133      Cl175   2.408   1_655  S
C134       C1417   1.483       .  S
C134        N172   1.348       .  A
N135        N142   1.317       .  A
N135        N165   1.331       .  A
N135       Co168   2.108       .  S
N136        N154   1.319       .  A
N136        N172   1.325       .  A
N137        C166   1.355       .  A
N137        N147   1.331       .  A
H138        C163   1.082       .  S
N139        N160   1.334       .  A
N140        N158   1.317       .  A
N140        N145   1.323       .  A
C141        C169   1.462       .  S
C141        C742   1.470       .  S
C141        N145   1.344       .  A
N142        C157   1.345       .  A
N142       Co164   2.100       .  S
C143        C146   1.463       .  S
C143        N171   1.347       .  A
C143        H177   1.082       .  S
C146        C431   1.465       .  S
C146        N167   1.346       .  A
N147        N153   1.319       .  A
N148        C174   1.349       .  A
N148        N150   1.319       .  A
N148       Co164   2.107       .  S
N149        C163   1.347       .  A
N150        N178   1.330       .  A
N150       Co168   2.113       .  S
H151        C174   1.081       .  S
H152        C169   1.081       .  S
N154       Co168   2.085   1_655  S
N155        N167   1.318       .  A
N155        N171   1.322       .  A
N155       Co164   2.086       .  S
C156        C170   1.443       .  S
C156        C603   1.467       .  S
C156        N160   1.359       .  A
C157        C176   1.473       .  S
C157        H161   1.081       .  S
N158        C169   1.337       .  A
N158       Co168   2.083   1_655  S
C162        C174   1.466       .  S
C162        C966   1.501       .  S
C162        N178   1.357       .  A
Co164      Cl175   2.419       .  S
N165        C176   1.358       .  A
C166        C512   1.468       .  S
Co168      Cl175   2.482       .  S
C176       C1513   1.518       .  S
C179        C216   1.468       .  S
C179        C388   1.469       .  S
C179        N197   1.344       .  A
N180        N197   1.319       .  A
N180        N202   1.323       .  A
N180       Co217   2.077       .  S
C181        C219   1.452       .  S
C181        N206   1.331       .  A
C181        H226   1.082       .  S
H182        C223   1.082       .  S
C183        C187   1.456       .  S
C183        N207   1.335       .  A
C183        H212   1.076       .  S
Co184       N202   2.107       .  S
Co184       N192   2.101   1_455  S
Co184       N224   2.095       .  S
Co184       N200   2.107   1_455  S
Co184      Cl228   2.495       .  S
N185        C223   1.333       .  A
N185        N192   1.322       .  A
N185       Co186   2.083       .  S
Co186       N189   2.088       .  S
Co186       N206   2.075       .  S
Co186       N193   2.093       .  S
Co186      Cl228   2.412   1_655  S
C187       C1401   1.473       .  S
C187        N225   1.351       .  A
N188        N195   1.317       .  A
N188        N218   1.326       .  A
N188       Co221   2.083       .  S
N189        N207   1.318       .  A
N189        N225   1.326       .  A
N190        C219   1.357       .  A
N190        N200   1.333       .  A
H191        C216   1.082       .  S
N192        N213   1.331       .  A
N193        N211   1.318       .  A
N193        N198   1.327       .  A
C194        C222   1.450       .  S
C194        C777   1.472       .  S
C194        N198   1.351       .  A
N195        C210   1.341       .  A
N195       Co217   2.093       .  S
C196        C199   1.468       .  S
C196        N224   1.350       .  A
C196        H230   1.081       .  S
C199        C268   1.465       .  S
C199        N220   1.341       .  A
N200        N206   1.321       .  A
N201        C227   1.343       .  A
N201        N203   1.317       .  A
N201       Co217   2.080       .  S
N202        C216   1.349       .  A
N203        N231   1.321       .  A
N203       Co221   2.075       .  S
H204        C227   1.081       .  S
H205        C222   1.081       .  S
N207       Co221   2.072   1_655  S
N208        N220   1.316       .  A
N208        N224   1.320       .  A
N208       Co217   2.073       .  S
C209        C223   1.454       .  S
C209        C452   1.471       .  S
C209        N213   1.355       .  A
C210        C229   1.468       .  S
C210        H214   1.081       .  S
N211        C222   1.337       .  A
N211       Co221   2.067   1_655  S
C215        C227   1.457       .  S
C215        C857   1.473       .  S
C215        N231   1.347       .  A
Co217      Cl228   2.413       .  S
N218        C229   1.352       .  A
C219        C676   1.473       .  S
Co221      Cl228   2.486       .  S
C229       C1609   1.494       .  S
C232        C269   1.461       .  S
C232       C1145   1.474       .  S
C232        N250   1.351       .  A
N233        N250   1.325       .  A
N233        N255   1.318       .  A
N233       Co270   2.085       .  S
C234        C272   1.469       .  S
C234        N259   1.349       .  A
C234        H279   1.081       .  S
H235        C276   1.081       .  S
C236        C240   1.463       .  S
C236        N260   1.347       .  A
C236        H265   1.082       .  S
Co237       N255   2.083   1_556  S
Co237       N245   2.105       .  S
Co237       N277   2.079   1_556  S
Co237       N253   2.088       .  S
Co237      Cl281   2.469       .  S
N238        C276   1.343       .  A
N238        N245   1.318       .  A
N238       Co239   2.090       .  S
Co239       N242   2.086       .  S
Co239       N259   2.107       .  S
Co239       N246   2.071       .  S
Co239      Cl281   2.418       .  S
C240        N278   1.345       .  A
N241        N248   1.321       .  A
N241        N271   1.333       .  A
N241       Co274   2.106       .  S
N242        N260   1.321       .  A
N242        N278   1.317       .  A
N243        C272   1.350       .  A
N243        N253   1.326       .  A
H244        C269   1.081       .  S
N245        N266   1.330       .  A
N246        N264   1.321       .  A
N246        N251   1.315       .  A
C247        C275   1.469       .  S
C247        C586   1.467       .  S
C247        N251   1.343       .  A
N248        C263   1.332       .  A
N248       Co270   2.080       .  S
C249        C252   1.461       .  S
C249        N277   1.333       .  A
C249        H283   1.076       .  S
C252        C870   1.484       .  S
C252        N273   1.351       .  A
N253        N259   1.316       .  A
N254        C280   1.331       .  A
N254        N256   1.320       .  A
N254       Co270   2.080       .  S
N255        C269   1.339       .  A
N256        N284   1.329       .  A
N256       Co274   2.087       .  S
H257        C280   1.082       .  S
H258        C275   1.081       .  S
N260       Co274   2.085   1_556  S
N261        N273   1.326       .  A
N261        N277   1.317       .  A
N261       Co270   2.078       .  S
C262        C276   1.458       .  S
C262       C1078   1.488       .  S
C262        N266   1.356       .  A
C263        C282   1.455       .  S
C263        H267   1.081       .  S
N264        C275   1.351       .  A
N264       Co274   2.102   1_556  S
C268        C280   1.455       .  S
C268        N284   1.353       .  A
Co270      Cl281   2.424   1_554  S
N271        C282   1.357       .  A
C272        C950   1.492       .  S
Co274      Cl281   2.497   1_554  S
C282        C374   1.477       .  S
C285        C322   1.459       .  S
C285       C1529   1.457       .  S
C285        N303   1.348       .  A
N286        N303   1.320       .  A
N286        N308   1.315       .  A
N286       Co323   2.067       .  S
C287        C325   1.455       .  S
C287        N312   1.341       .  A
C287        H332   1.081       .  S
H288        C329   1.081       .  S
C289        C293   1.467       .  S
C289        N313   1.350       .  A
C289        H318   1.081       .  S
Co290       N308   2.071       .  S
Co290       N298   2.104   1_455  S
Co290       N330   2.084       .  S
Co290       N306   2.091   1_455  S
Co290      Cl334   2.473       .  S
N291        C329   1.344       .  A
N291        N298   1.320       .  A
N291       Co292   2.092       .  S
Co292       N295   2.070       .  S
Co292       N312   2.079       .  S
Co292       N299   2.082       .  S
Co292      Cl334   2.412   1_655  S
C293        C494   1.464       .  S
C293        N331   1.343       .  A
N294        N301   1.320       .  A
N294        N324   1.329       .  A
N294       Co327   2.082       .  S
N295        N313   1.320       .  A
N295        N331   1.315       .  A
N296        C325   1.351       .  A
N296        N306   1.328       .  A
H297        C322   1.082       .  S
N298        N319   1.330       .  A
N299        N317   1.321       .  A
N299        N304   1.316       .  A
C300        C328   1.464       .  S
C300        C533   1.461       .  S
C300        N304   1.343       .  A
N301        C316   1.330       .  A
N301       Co323   2.082       .  S
C302        C305   1.458       .  S
C302        N330   1.340       .  A
C302        H336   1.081       .  S
C305        C886   1.462       .  S
C305        N326   1.344       .  A
N306        N312   1.317       .  A
N307        C333   1.328       .  A
N307        N309   1.319       .  A
N307       Co323   2.057       .  S
N308        C322   1.337       .  A
N309        N337   1.333       .  A
N309       Co327   2.108       .  S
H310        C333   1.082       .  S
H311        C328   1.081       .  S
N313       Co327   2.095   1_655  S
N314        N326   1.322       .  A
N314        N330   1.319       .  A
N314       Co323   2.072       .  S
C315        C329   1.458       .  S
C315       C1449   1.487       .  S
C315        N319   1.353       .  A
C316        C335   1.457       .  S
C316        H320   1.082       .  S
N317        C328   1.348       .  A
N317       Co327   2.086   1_655  S
C321        C333   1.444       .  S
C321        C411   1.467       .  S
C321        N337   1.359       .  A
Co323      Cl334   2.407       .  S
N324        C335   1.351       .  A
C325        C809   1.479       .  S
Co327      Cl334   2.499       .  S
C335        C346   1.462       .  S
C338        C375   1.456       .  S
C338       C1625   1.469       .  S
C338        N356   1.348       .  A
N339        N356   1.322       .  A
N339        N361   1.318       .  A
N339       Co376   2.076       .  S
C340        C378   1.451       .  S
C340        N365   1.337       .  A
C340        H385   1.081       .  S
H341        C382   1.081       .  S
C342        C346   1.472       .  S
C342        N366   1.352       .  A
C342        H371   1.081       .  S
Co343       N361   2.078   1_545  S
Co343       N351   2.080       .  S
Co343       N383   2.075   1_545  S
Co343       N359   2.093       .  S
Co343      Cl387   2.475   1_545  S
N344        C382   1.342       .  A
N344        N351   1.316       .  A
N344       Co345   2.083       .  S
Co345       N348   2.053       .  S
Co345       N365   2.063       .  S
Co345       N352   2.077       .  S
Co345      Cl387   2.408   1_545  S
C346        N384   1.337       .  A
N347        N354   1.321       .  A
N347        N377   1.330       .  A
N347       Co380   2.092       .  S
N348        N366   1.319       .  A
N348        N384   1.312       .  A
N349        C378   1.353       .  A
N349        N359   1.325       .  A
H350        C375   1.080       .  S
N351        N372   1.324       .  A
N352        N370   1.321       .  A
N352        N357   1.315       .  A
C353        C381   1.466       .  S
C353        C391   1.462       .  S
C353        N357   1.343       .  A
N354        C369   1.335       .  A
N354       Co376   2.086       .  S
C355        C358   1.458       .  S
C355        N383   1.340       .  A
C355        H389   1.081       .  S
C358       C1126   1.468       .  S
C358        N379   1.349       .  A
N359        N365   1.316       .  A
N360        C386   1.330       .  A
N360        N362   1.321       .  A
N360       Co376   2.072       .  S
N361        C375   1.340       .  A
N362        N390   1.333       .  A
N362       Co380   2.113       .  S
H363        C386   1.081       .  S
H364        C381   1.081       .  S
N366       Co380   2.105   1_545  S
N367        N379   1.323       .  A
N367        N383   1.318       .  A
N367       Co376   2.087       .  S
C368        C382   1.459       .  S
C368       C1542   1.473       .  S
C368        N372   1.349       .  A
C369        C388   1.456       .  S
C369        H373   1.082       .  S
N370        C381   1.350       .  A
N370       Co380   2.092   1_545  S
C374        C386   1.452       .  S
C374        N390   1.359       .  A
Co376      Cl387   2.411       .  S
N377        C388   1.353       .  A
C378       C1286   1.468       .  S
Co380      Cl387   2.502       .  S
C391        C428   1.468       .  S
C391        N409   1.342       .  A
N392        N409   1.315       .  A
N392        N414   1.319       .  A
N392       Co429   2.067       .  S
C393        C431   1.451       .  S
C393        N418   1.331       .  A
C393        H438   1.082       .  S
H394        C435   1.081       .  S
C395        C399   1.456       .  S
C395        N419   1.339       .  A
C395        H424   1.081       .  S
Co396       N414   2.094   1_556  S
Co396       N404   2.075       .  S
Co396       N436   2.078   1_556  S
Co396       N412   2.100       .  S
Co396      Cl440   2.499       .  S
N397        C435   1.328       .  A
N397        N404   1.320       .  A
N397       Co398   2.082       .  S
Co398       N401   2.074       .  S
Co398       N418   2.067       .  S
Co398       N405   2.090       .  S
Co398      Cl440   2.410       .  S
C399       C1222   1.465       .  S
C399        N437   1.346       .  A
N400        N407   1.320       .  A
N400        N430   1.328       .  A
N400       Co433   2.099       .  S
N401        N419   1.317       .  A
N401        N437   1.323       .  A
N402        C431   1.356       .  A
N402        N412   1.330       .  A
H403        C428   1.081       .  S
N404        N425   1.330       .  A
N405        N423   1.318       .  A
N405        N410   1.324       .  A
C406        C434   1.468       .  S
C406        C985   1.487       .  S
C406        N410   1.352       .  A
N407        C422   1.344       .  A
N407       Co429   2.094       .  S
C408        C411   1.460       .  S
C408        N436   1.347       .  A
C408        H442   1.081       .  S
C411        N432   1.349       .  A
N412        N418   1.320       .  A
N413        C439   1.340       .  A
N413        N415   1.318       .  A
N413       Co429   2.078       .  S
N414        C428   1.350       .  A
N415        N443   1.324       .  A
N415       Co433   2.084       .  S
H416        C439   1.081       .  S
H417        C434   1.081       .  S
N419       Co433   2.077   1_556  S
N420        N432   1.318       .  A
N420        N436   1.321       .  A
N420       Co429   2.096       .  S
C421        C435   1.456       .  S
C421        N425   1.350       .  A
C422        C441   1.458       .  S
C422        H426   1.081       .  S
N423        C434   1.346       .  A
N423       Co433   2.097   1_556  S
C427        C439   1.455       .  S
C427        C905   1.470       .  S
C427        N443   1.350       .  A
Co429      Cl440   2.411   1_554  S
N430        C441   1.352       .  A
Co433      Cl440   2.479   1_554  S
C441       C1302   1.483       .  S
C444        C481   1.455       .  S
C444       C1465   1.469       .  S
C444        N462   1.348       .  A
N445        N462   1.324       .  A
N445        N467   1.318       .  A
N445       Co482   2.082       .  S
C446        C484   1.468       .  S
C446        N471   1.343       .  A
C446        H491   1.081       .  S
H447        C488   1.081       .  S
C448        C452   1.468       .  S
C448        N472   1.351       .  A
C448        H477   1.081       .  S
Co449       N467   2.080   1_565  S
Co449       N457   2.073       .  S
Co449       N489   2.067   1_565  S
Co449       N465   2.097       .  S
Co449      Cl493   2.474       .  S
N450        C488   1.342       .  A
N450        N457   1.317       .  A
N450       Co451   2.085       .  S
Co451       N454   2.083       .  S
Co451       N471   2.095       .  S
Co451       N458   2.076       .  S
Co451      Cl493   2.412       .  S
C452        N490   1.344       .  A
N453        N460   1.320       .  A
N453        N483   1.331       .  A
N453       Co486   2.094   1_545  S
N454        N472   1.321       .  A
N454        N490   1.319       .  A
N455        C484   1.354       .  A
N455        N465   1.328       .  A
H456        C481   1.081       .  S
N457        N478   1.322       .  A
N458        N476   1.320       .  A
N458        N463   1.316       .  A
C459        C487   1.462       .  S
C459        C656   1.457       .  S
C459        N463   1.345       .  A
N460        C475   1.329       .  A
N460       Co482   2.071       .  S
C461        C464   1.463       .  S
C461        N489   1.329       .  A
C461        H495   1.075       .  S
C464       C1254   1.490       .  S
C464        N485   1.352       .  A
N465        N471   1.317       .  A
N466        C492   1.325       .  A
N466        N468   1.319       .  A
N466       Co482   2.060       .  S
N467        C481   1.341       .  A
N468        N496   1.331       .  A
N468       Co486   2.093   1_545  S
H469        C492   1.079       .  S
H470        C487   1.082       .  S
N472       Co486   2.098       .  S
N473        N485   1.328       .  A
N473        N489   1.315       .  A
N473       Co482   2.083       .  S
C474        C488   1.461       .  S
C474       C1385   1.477       .  S
C474        N478   1.346       .  A
C475        C494   1.451       .  S
C475        H479   1.082       .  S
N476        C487   1.346       .  A
N476       Co486   2.083       .  S
C480        C492   1.449       .  S
C480        C547   1.464       .  S
C480        N496   1.355       .  A
Co482      Cl493   2.409   1_545  S
N483        C494   1.355       .  A
C484       C1097   1.503       .  S
Co486      Cl493   2.497       .  S
C497        C534   1.458       .  S
C497       C1273   1.489       .  S
C497        N515   1.356       .  A
N498        N515   1.329       .  A
N498        N520   1.315       .  A
N498       Co535   2.102       .  S
C499        C537   1.462       .  S
C499        N524   1.337       .  A
C499        H544   1.075       .  S
H500        C541   1.079       .  S
C501        C505   1.466       .  S
C501        N525   1.349       .  A
C501        H530   1.081       .  S
Co502       N520   2.078   1_556  S
Co502       N510   2.052       .  S
Co502       N542   2.058   1_556  S
Co502       N518   2.075       .  S
Co502      Cl546   2.478       .  S
N503        C541   1.339       .  A
N503        N510   1.317       .  A
N503       Co504   2.074       .  S
Co504       N507   2.072       .  S
Co504       N524   2.077       .  S
Co504       N511   2.067       .  S
Co504      Cl546   2.401       .  S
C505        C623   1.461       .  S
C505        N543   1.343       .  A
N506        N513   1.320       .  A
N506        N536   1.330       .  A
N506       Co539   2.097       .  S
N507        N525   1.319       .  A
N507        N543   1.316       .  A
N508        C537   1.351       .  A
N508        N518   1.323       .  A
H509        C534   1.079       .  S
N510        N531   1.317       .  A
N511        N529   1.320       .  A
N511        N516   1.315       .  A
C512        C540   1.471       .  S
C512        N516   1.341       .  A
N513        C528   1.326       .  A
N513       Co535   2.063       .  S
C514        C517   1.447       .  S
C514        N542   1.336       .  A
C514        H548   1.081       .  S
C517        C825   1.460       .  S
C517        N538   1.347       .  A
N518        N524   1.315       .  A
N519        C545   1.330       .  A
N519        N521   1.321       .  A
N519       Co535   2.076       .  S
N520        C534   1.341       .  A
N521        N549   1.329       .  A
N521       Co539   2.088       .  S
H522        C545   1.082       .  S
H523        C540   1.081       .  S
N525       Co539   2.089   1_556  S
N526        N538   1.325       .  A
N526        N542   1.318       .  A
N526       Co535   2.083       .  S
C527        C541   1.455       .  S
C527       C1193   1.458       .  S
C527        N531   1.340       .  A
C528        C547   1.451       .  S
C528        H532   1.080       .  S
N529        C540   1.352       .  A
N529       Co539   2.104   1_556  S
C533        C545   1.450       .  S
C533        N549   1.353       .  A
Co535      Cl546   2.402   1_554  S
N536        C547   1.355       .  A
C537        C758   1.485       .  S
Co539      Cl546   2.498   1_554  S
C550        C587   1.455       .  S
C550       C1577   1.480       .  S
C550        N568   1.354       .  A
N551        N568   1.329       .  A
N551        N573   1.318       .  A
N551       Co588   2.101       .  S
C552        C590   1.446       .  S
C552        N577   1.336       .  A
C552        H597   1.079       .  S
H553        C594   1.079       .  S
C554        C558   1.469       .  S
C554        N578   1.350       .  A
C554        H583   1.081       .  S
Co555       N573   2.079       .  S
Co555       N563   2.085   1_455  S
Co555       N595   2.085       .  S
Co555       N571   2.084   1_455  S
Co555      Cl599   2.480       .  S
N556        C594   1.342       .  A
N556        N563   1.318       .  A
N556       Co557   2.080       .  S
Co557       N560   2.058       .  S
Co557       N577   2.062       .  S
Co557       N564   2.083       .  S
Co557      Cl599   2.413   1_655  S
C558        C633   1.461       .  S
C558        N596   1.340       .  A
N559        N566   1.322       .  A
N559        N589   1.329       .  A
N559       Co592   2.084       .  S
N560        N578   1.318       .  A
N560        N596   1.313       .  A
N561        C590   1.350       .  A
N561        N571   1.324       .  A
H562        C587   1.081       .  S
N563        N584   1.325       .  A
N564        N582   1.320       .  A
N564        N569   1.319       .  A
C565        C593   1.469       .  S
C565        C696   1.472       .  S
C565        N569   1.344       .  A
N566        C581   1.331       .  A
N566       Co588   2.084       .  S
C567        C570   1.462       .  S
C567        N595   1.343       .  A
C567        H601   1.081       .  S
C570        C937   1.483       .  S
C570        N591   1.355       .  A
N571        N577   1.318       .  A
N572        C598   1.330       .  A
N572        N574   1.322       .  A
N572       Co588   2.079       .  S
N573        C587   1.340       .  A
N574        N602   1.331       .  A
N574       Co592   2.100       .  S
H575        C598   1.082       .  S
H576        C593   1.081       .  S
N578       Co592   2.097   1_655  S
N579        N591   1.328       .  A
N579        N595   1.316       .  A
N579       Co588   2.103       .  S
C580        C594   1.455       .  S
C580       C1353   1.477       .  S
C580        N584   1.348       .  A
C581        C600   1.456       .  S
C581        H585   1.082       .  S
N582        C593   1.351       .  A
N582       Co592   2.098   1_655  S
C586        C598   1.452       .  S
C586        N602   1.355       .  A
Co588      Cl599   2.411       .  S
N589        C600   1.351       .  A
C590        C713   1.464       .  S
Co592      Cl599   2.494       .  S
C603        C640   1.464       .  S
C603        N621   1.347       .  A
N604        N621   1.317       .  A
N604        N626   1.321       .  A
N604       Co641   2.083       .  S
C605        C643   1.450       .  S
C605        N630   1.327       .  A
C605        H650   1.081       .  S
H606        C647   1.078       .  S
C607        C611   1.466       .  S
C607        N631   1.343       .  A
C607        H636   1.081       .  S
Co608       N626   2.091   1_565  S
Co608       N616   2.082       .  S
Co608       N648   2.082   1_565  S
Co608       N624   2.096       .  S
Co608      Cl652   2.497       .  S
N609        C647   1.327       .  A
N609        N616   1.320       .  A
N609       Co610   2.074       .  S
Co610       N613   2.094       .  S
Co610       N630   2.066       .  S
Co610       N617   2.093       .  S
Co610      Cl652   2.407       .  S
C611       C1369   1.495       .  S
C611        N649   1.351       .  A
N612        N619   1.317       .  A
N612        N642   1.319       .  A
N612       Co645   2.060   1_545  S
N613        N631   1.317       .  A
N613        N649   1.324       .  A
N614        C643   1.355       .  A
N614        N624   1.331       .  A
H615        C640   1.081       .  S
N616        N637   1.330       .  A
N617        N635   1.315       .  A
N617        N622   1.328       .  A
C618        C646   1.459       .  S
C618       C1033   1.482       .  S
C618        N622   1.354       .  A
N619        C634   1.343       .  A
N619       Co641   2.091       .  S
C620        C623   1.464       .  S
C620        N648   1.347       .  A
C620        H654   1.082       .  S
C623        N644   1.345       .  A
N624        N630   1.320       .  A
N625        C651   1.340       .  A
N625        N627   1.318       .  A
N625       Co641   2.076       .  S
N626        C640   1.349       .  A
N627        N655   1.320       .  A
N627       Co645   2.076   1_545  S
H628        C651   1.081       .  S
H629        C646   1.079       .  S
N631       Co645   2.079       .  S
N632        N644   1.317       .  A
N632        N648   1.319       .  A
N632       Co641   2.079       .  S
C633        C647   1.452       .  S
C633        N637   1.352       .  A
C634        C653   1.466       .  S
C634        H638   1.081       .  S
N635        C646   1.338       .  A
N635       Co645   2.076       .  S
C639        C651   1.459       .  S
C639       C1174   1.480       .  S
C639        N655   1.348       .  A
Co641      Cl652   2.410   1_545  S
N642        C653   1.345       .  A
C643        C686   1.466       .  S
Co645      Cl652   2.477       .  S
C653       C1433   1.464       .  S
C656        C693   1.468       .  S
C656        N674   1.341       .  A
N657        N674   1.314       .  A
N657        N679   1.320       .  A
N657       Co694   2.061       .  S
C658        C696   1.457       .  S
C658        N683   1.335       .  A
C658        H703   1.082       .  S
H659        C700   1.081       .  S
C660        C664   1.460       .  S
C660        N684   1.342       .  A
C660        H689   1.081       .  S
Co661       N679   2.098   1_556  S
Co661       N669   2.094       .  S
Co661       N701   2.098   1_556  S
Co661       N677   2.100       .  S
Co661      Cl705   2.500   1_556  S
N662        C700   1.328       .  A
N662        N669   1.319       .  A
N662       Co663   2.067       .  S
Co663       N666   2.099       .  S
Co663       N683   2.090       .  S
Co663       N670   2.089       .  S
Co663      Cl705   2.411   1_556  S
C664       C1049   1.478       .  S
C664        N702   1.350       .  A
N665        N672   1.316       .  A
N665        N695   1.324       .  A
N665       Co698   2.079       .  S
N666        N684   1.320       .  A
N666        N702   1.326       .  A
N667        C696   1.354       .  A
N667        N677   1.330       .  A
H668        C693   1.081       .  S
N669        N690   1.331       .  A
N670        N688   1.316       .  A
N670        N675   1.327       .  A
C671        C699   1.457       .  S
C671        C726   1.479       .  S
C671        N675   1.354       .  A
N672        C687   1.345       .  A
N672       Co694   2.089       .  S
C673        C676   1.470       .  S
C673        N701   1.353       .  A
C673        H707   1.081       .  S
C676        N697   1.343       .  A
N677        N683   1.323       .  A
N678        C704   1.341       .  A
N678        N680   1.319       .  A
N678       Co694   2.074       .  S
N679        C693   1.348       .  A
N680        N708   1.324       .  A
N680       Co698   2.091       .  S
H681        C704   1.080       .  S
H682        C699   1.079       .  S
N684       Co698   2.085   1_556  S
N685        N697   1.317       .  A
N685        N701   1.319       .  A
N685       Co694   2.079       .  S
C686        C700   1.451       .  S
C686        N690   1.355       .  A
C687        C706   1.461       .  S
C687        H691   1.081       .  S
N688        C699   1.335       .  A
N688       Co698   2.069   1_556  S
C692        C704   1.451       .  S
C692        C793   1.471       .  S
C692        N708   1.350       .  A
Co694      Cl705   2.409       .  S
N695        C706   1.350       .  A
Co698      Cl705   2.480       .  S
C706       C1113   1.475       .  S
C709        C710   1.406       .  A
C709        C714   1.404       .  A
C709        H716   1.082       .  S
C710        C711   1.431       .  A
C711        C712   1.397       .  A
C711        C718   1.515       .  S
C712        C713   1.388       .  A
C712        H717   1.086       .  S
C713        C714   1.415       .  A
C714        C715   1.519       .  S
C715        F719   1.385       .  S
C715        F720   1.380       .  S
C715        F721   1.383       .  S
C718        F722   1.382       .  S
C718        F723   1.370       .  S
C718        F724   1.382       .  S
C725        C726   1.398       .  A
C725        C730   1.410       .  A
C725        H732   1.085       .  S
C726        C727   1.412       .  A
C727        C728   1.399       .  A
C727        C734   1.508       .  S
C728        C729   1.395       .  A
C728        H733   1.071       .  S
C729        C730   1.426       .  A
C730        C731   1.510       .  S
C731        F735   1.384       .  S
C731        F736   1.377       .  S
C731        F737   1.380       .  S
C734        F738   1.379   1_556  S
C734        F739   1.383       .  S
C734        F740   1.376   1_556  S
C741        C742   1.407       .  A
C741        C746   1.412       .  A
C741        H748   1.083       .  S
C742        C743   1.403       .  A
C743        C744   1.396       .  A
C743        C750   1.520       .  S
C744        C745   1.405       .  A
C744        H749   1.072       .  S
C745        C746   1.419       .  A
C746        C747   1.521       .  S
C747        F751   1.384       .  S
C747        F752   1.379       .  S
C747        F753   1.382       .  S
C750        F754   1.383       .  S
C750        F755   1.381       .  S
C750        F756   1.385       .  S
C757        C758   1.413       .  A
C757        C762   1.407       .  A
C757        H764   1.084       .  S
C758        C759   1.424       .  A
C759        C760   1.405       .  A
C759        C766   1.519       .  S
C760        C761   1.404       .  A
C760        H765   1.063       .  S
C761        C762   1.409       .  A
C762        C763   1.522       .  S
C763        F767   1.385       .  S
C763        F768   1.382       .  S
C763        F769   1.385       .  S
C766        F770   1.383       .  S
C766        F771   1.382       .  S
C766        F772   1.385       .  S
C773        C774   1.400       .  A
C773        C778   1.408       .  A
C773        H780   1.082       .  S
C774        C775   1.436       .  A
C775        C776   1.400       .  A
C775        C782   1.507       .  S
C776        C777   1.384       .  A
C776        H781   1.086       .  S
C777        C778   1.411       .  A
C778        C779   1.504       .  S
C779        F783   1.371   1_655  S
C779        F784   1.383       .  S
C779        F785   1.379   1_655  S
C782        F786   1.383       .  S
C782        F787   1.356       .  S
C782        F788   1.385       .  S
C789        C790   1.405       .  A
C789        C794   1.397       .  A
C789        H796   1.068       .  S
C790        C791   1.426       .  A
C791        C792   1.412       .  A
C791        C798   1.519       .  S
C792        C793   1.405       .  A
C792        H797   1.085       .  S
C793        C794   1.403       .  A
C794        C795   1.520       .  S
C795        F799   1.385       .  S
C795        F800   1.382       .  S
C795        F801   1.384       .  S
C798        F802   1.383       .  S
C798        F803   1.378       .  S
C798        F804   1.381       .  S
C805        C806   1.408       .  A
C805        C810   1.417       .  A
C805        H812   1.082       .  S
C806        C807   1.437       .  A
C807        C808   1.402       .  A
C807        C814   1.502       .  S
C808        C809   1.384       .  A
C808        H813   1.086       .  S
C809        C810   1.413       .  A
C810        C811   1.507       .  S
C811        F815   1.380       .  S
C811        F816   1.382       .  S
C811        F817   1.374   1_655  S
C814        F818   1.384       .  S
C814        F819   1.351       .  S
C814        F820   1.383       .  S
C821        C822   1.406       .  A
C821        C826   1.405       .  A
C821        H828   1.082       .  S
C822        C823   1.432       .  A
C823        C824   1.396       .  A
C823        C830   1.515       .  S
C824        C825   1.388       .  A
C824        H829   1.086       .  S
C825        C826   1.411       .  A
C826        C827   1.516       .  S
C827        F831   1.385       .  S
C827        F832   1.383       .  S
C827        F833   1.382       .  S
C830        F834   1.384       .  S
C830        F835   1.367       .  S
C830        F836   1.381       .  S
C837        C838   1.391       .  A
C837        C842   1.414   1_554  A
C837        H844   1.070       .  S
C838        C839   1.439       .  A
C839        C840   1.437   1_554  A
C839        C846   1.504       .  S
C840        C841   1.413       .  A
C840        H845   1.068       .  S
C841        C842   1.420       .  A
C842        C843   1.482       .  S
C843        F847   1.371       .  S
C843        F848   1.376       .  S
C843        F849   1.372       .  S
C846        F850   1.360       .  S
C846        F851   1.383       .  S
C846        F852   1.385       .  S
C853        C854   1.402       .  A
C853        C858   1.398       .  A
C853        H860   1.075       .  S
C854        C855   1.414       .  A
C855        C856   1.411       .  A
C855        C862   1.518       .  S
C856        C857   1.409       .  A
C856        H861   1.083       .  S
C857        C858   1.410       .  A
C858        C859   1.521       .  S
C859        F863   1.385       .  S
C859        F864   1.382       .  S
C859        F865   1.384       .  S
C862        F866   1.383       .  S
C862        F867   1.373       .  S
C862        F868   1.384       .  S
C869        C870   1.408       .  A
C869        C874   1.411       .  A
C869        H876   1.084       .  S
C870        C871   1.413       .  A
C871        C872   1.398       .  A
C871        C878   1.518       .  S
C872        C873   1.406       .  A
C872        H877   1.053       .  S
C873        C874   1.418       .  A
C874        C875   1.514       .  S
C875        F879   1.385       .  S
C875        F880   1.380       .  S
C875        F881   1.381       .  S
C878        F882   1.383       .  S
C878        F883   1.382       .  S
C878        F884   1.385       .  S
C885        C886   1.399       .  A
C885        C890   1.401       .  A
C885        H892   1.084       .  S
C886        C887   1.406       .  A
C887        C888   1.400       .  A
C887        C894   1.516       .  S
C888        C889   1.404       .  A
C888        H893   1.083       .  S
C889        C890   1.415       .  A
C890        C891   1.515       .  S
C891        F895   1.383       .  S
C891        F896   1.372       .  S
C891        F897   1.375       .  S
C894        F898   1.384       .  S
C894        F899   1.382       .  S
C894        F900   1.384       .  S
C901        C902   1.400       .  A
C901        C906   1.401       .  A
C901        H908   1.078       .  S
C902        C903   1.422       .  A
C903        C904   1.406       .  A
C903        C910   1.519       .  S
C904        C905   1.398       .  A
C904        H909   1.085       .  S
C905        C906   1.412       .  A
C906        C907   1.516       .  S
C907        F911   1.379       .  S
C907        F912   1.382       .  S
C907        F913   1.378       .  S
C910        F914   1.380       .  S
C910        F915   1.383       .  S
C910        F916   1.383       .  S
C917        C918   1.394       .  A
C917        C922   1.412   1_455  A
C917        H924   1.075       .  S
C918        C919   1.442       .  A
C919        C920   1.445   1_455  A
C919        C926   1.509       .  S
C920        C921   1.416       .  A
C920        H925   1.084       .  S
C921        C922   1.428       .  A
C922        C923   1.497       .  S
C923        F927   1.377       .  S
C923        F928   1.369       .  S
C923        F929   1.384   1_655  S
C926        F930   1.383       .  S
C926        F931   1.373       .  S
C926        F932   1.384       .  S
C933        C934   1.413       .  A
C933        C938   1.415       .  A
C933        H940   1.082       .  S
C934        C935   1.437       .  A
C935        C936   1.405       .  A
C935        C942   1.507       .  S
C936        C937   1.390       .  A
C936        H941   1.086       .  S
C937        C938   1.411       .  A
C938        C939   1.514       .  S
C939        F943   1.384       .  S
C939        F944   1.384       .  S
C939        F945   1.382       .  S
C942        F946   1.385       .  S
C942        F947   1.356       .  S
C942        F948   1.382       .  S
C949        C950   1.398       .  A
C949        C954   1.412       .  A
C949        H956   1.086       .  S
C950        C951   1.412       .  A
C951        C952   1.415       .  A
C951        C958   1.515       .  S
C952        C953   1.413       .  A
C952        H957   1.082       .  S
C953        C954   1.431       .  A
C954        C955   1.510       .  S
C955        F959   1.385       .  S
C955        F960   1.380   1_556  S
C955        F961   1.369       .  S
C958        F962   1.383       .  S
C958        F963   1.383       .  S
C958        F964   1.385       .  S
C965        C966   1.404       .  A
C965        C970   1.420       .  A
C965        H972   1.084       .  S
C966        C967   1.412       .  A
C967        C968   1.407       .  A
C967        C974   1.503       .  S
C968        C969   1.399       .  A
C968        H973   1.082       .  S
C969        C970   1.429       .  A
C970        C971   1.518       .  S
C971        F975   1.383       .  S
C971        F976   1.380       .  S
C971        F977   1.383       .  S
C974        F978   1.383       .  S
C974        F979   1.366       .  S
C974        F980   1.378       .  S
C981        C982   1.414       .  A
C981        C986   1.413       .  A
C981        H988   1.083       .  S
C982        C983   1.436       .  A
C983        C984   1.407       .  A
C983        C990   1.515       .  S
C984        C985   1.396       .  A
C984        H989   1.086       .  S
C985        C986   1.411       .  A
C986        C987   1.517       .  S
C987        F991   1.385       .  S
C987        F992   1.383       .  S
C987        F993   1.381       .  S
C990        F994   1.383       .  S
C990        F995   1.359       .  S
C990        F996   1.379       .  S
C997        C998   1.410       .  A
C997       C1002   1.429   1_556  A
C997       H1004   1.083       .  S
C998        C999   1.429       .  A
C999       C1000   1.395   1_556  A
C999       C1006   1.503       .  S
C1000      C1001   1.387       .  A
C1000      H1005   1.074       .  S
C1001      C1002   1.438       .  A
C1002      C1003   1.515       .  S
C1003      F1007   1.383       .  S
C1003      F1008   1.380       .  S
C1003      F1009   1.382       .  S
C1006      F1010   1.382   1_556  S
C1006      F1011   1.356       .  S
C1006      F1012   1.383   1_556  S
C1013      C1014   1.395       .  A
C1013      C1018   1.403   1_655  A
C1013      H1020   1.063       .  S
C1014      C1015   1.443       .  A
C1015      C1016   1.434   1_655  A
C1015      C1022   1.503       .  S
C1016      C1017   1.409       .  A
C1016      H1021   1.083       .  S
C1017      C1018   1.421       .  A
C1018      C1019   1.506       .  S
C1019      F1023   1.382       .  S
C1019      F1024   1.354       .  S
C1019      F1025   1.376       .  S
C1022      F1026   1.365       .  S
C1022      F1027   1.382       .  S
C1022      F1028   1.385   1_655  S
C1029      C1030   1.405       .  A
C1029      C1034   1.411       .  A
C1029      H1036   1.074       .  S
C1030      C1031   1.425       .  A
C1031      C1032   1.410       .  A
C1031      C1038   1.519       .  S
C1032      C1033   1.400       .  A
C1032      H1037   1.085       .  S
C1033      C1034   1.415       .  A
C1034      C1035   1.523       .  S
C1035      F1039   1.382       .  S
C1035      F1040   1.381       .  S
C1035      F1041   1.382       .  S
C1038      F1042   1.384       .  S
C1038      F1043   1.378       .  S
C1038      F1044   1.383       .  S
C1045      C1046   1.407       .  A
C1045      C1050   1.408       .  A
C1045      H1052   1.083       .  S
C1046      C1047   1.433       .  A
C1047      C1048   1.407       .  A
C1047      C1054   1.521       .  S
C1048      C1049   1.398       .  A
C1048      H1053   1.085       .  S
C1049      C1050   1.409       .  A
C1050      C1051   1.515       .  S
C1051      F1055   1.384       .  S
C1051      F1056   1.383       .  S
C1051      F1057   1.384       .  S
C1054      F1058   1.381       .  S
C1054      F1059   1.372       .  S
C1054      F1060   1.376       .  S
C1061      C1062   1.395       .  A
C1061      C1066   1.406       .  A
C1061      H1068   1.085       .  S
C1062      C1063   1.407       .  A
C1063      C1064   1.406       .  A
C1063      C1070   1.515       .  S
C1064      C1065   1.411       .  A
C1064      H1069   1.082       .  S
C1065      C1066   1.425       .  A
C1066      C1067   1.512       .  S
C1067      F1071   1.373       .  S
C1067      F1072   1.373       .  S
C1067      F1073   1.382       .  S
C1070      F1074   1.383       .  S
C1070      F1075   1.383       .  S
C1070      F1076   1.384       .  S
C1077      C1078   1.402       .  A
C1077      C1082   1.409       .  A
C1077      H1084   1.083       .  S
C1078      C1079   1.412       .  A
C1079      C1080   1.412       .  A
C1079      C1086   1.514       .  S
C1080      C1081   1.407       .  A
C1080      H1085   1.083       .  S
C1081      C1082   1.415       .  A
C1082      C1083   1.509       .  S
C1083      F1087   1.384       .  S
C1083      F1088   1.367       .  S
C1083      F1089   1.370       .  S
C1086      F1090   1.383       .  S
C1086      F1091   1.383       .  S
C1086      F1092   1.384       .  S
C1093      C1094   1.416       .  A
C1093      C1098   1.416       .  A
C1093      H1100   1.077       .  S
C1094      C1095   1.408       .  A
C1095      C1096   1.408       .  A
C1095      C1102   1.524       .  S
C1096      C1097   1.415       .  A
C1096      H1101   1.082       .  S
C1097      C1098   1.429       .  A
C1098      C1099   1.516       .  S
C1099      F1103   1.385       .  S
C1099      F1104   1.370       .  S
C1099      F1105   1.383       .  S
C1102      F1106   1.380       .  S
C1102      F1107   1.379       .  S
C1102      F1108   1.386       .  S
C1109      C1110   1.410       .  A
C1109      C1114   1.422       .  A
C1109      H1116   1.080       .  S
C1110      C1111   1.410       .  A
C1111      C1112   1.401       .  A
C1111      C1118   1.530       .  S
C1112      C1113   1.405       .  A
C1112      H1117   1.085       .  S
C1113      C1114   1.423       .  A
C1114      C1115   1.514       .  S
C1115      F1119   1.384       .  S
C1115      F1120   1.384       .  S
C1115      F1121   1.382       .  S
C1118      F1122   1.361       .  S
C1118      F1123   1.385       .  S
C1118      F1124   1.385       .  S
C1125      C1126   1.396       .  A
C1125      C1130   1.401       .  A
C1125      H1132   1.086       .  S
C1126      C1127   1.411       .  A
C1127      C1128   1.406       .  A
C1127      C1134   1.516       .  S
C1128      C1129   1.409       .  A
C1128      H1133   1.083       .  S
C1129      C1130   1.423       .  A
C1130      C1131   1.514       .  S
C1131      F1135   1.380       .  S
C1131      F1136   1.383       .  S
C1131      F1137   1.373       .  S
C1134      F1138   1.382       .  S
C1134      F1139   1.383       .  S
C1134      F1140   1.385       .  S
C1141      C1142   1.397       .  A
C1141      C1146   1.404       .  A
C1141      H1148   1.072       .  S
C1142      C1143   1.427       .  A
C1143      C1144   1.409       .  A
C1143      C1150   1.518       .  S
C1144      C1145   1.397       .  A
C1144      H1149   1.085       .  S
C1145      C1146   1.411       .  A
C1146      C1147   1.514       .  S
C1147      F1151   1.378       .  S
C1147      F1152   1.380       .  S
C1147      F1153   1.377       .  S
C1150      F1154   1.384       .  S
C1150      F1155   1.376       .  S
C1150      F1156   1.383       .  S
C1157      C1158   1.415       .  A
C1157      C1162   1.430   1_554  A
C1157      H1164   1.084       .  S
C1158      C1159   1.436       .  A
C1159      C1160   1.400   1_554  A
C1159      C1166   1.510       .  S
C1160      C1161   1.391       .  A
C1160      H1165   1.086       .  S
C1161      C1162   1.425       .  A
C1162      C1163   1.512       .  S
C1163      F1167   1.383       .  S
C1163      F1168   1.379       .  S
C1163      F1169   1.383       .  S
C1166      F1170   1.383       .  S
C1166      F1171   1.354       .  S
C1166      F1172   1.385       .  S
C1173      C1174   1.405       .  A
C1173      C1178   1.406       .  A
C1173      H1180   1.084       .  S
C1174      C1175   1.417       .  A
C1175      C1176   1.393       .  A
C1175      C1182   1.515       .  S
C1176      C1177   1.405       .  A
C1176      H1181   1.064       .  S
C1177      C1178   1.418       .  A
C1178      C1179   1.508       .  S
C1179      F1183   1.385       .  S
C1179      F1184   1.379       .  S
C1179      F1185   1.376       .  S
C1182      F1186   1.374   1_545  S
C1182      F1187   1.382       .  S
C1182      F1188   1.383   1_545  S
C1189      C1190   1.406       .  A
C1189      C1194   1.399       .  A
C1189      H1196   1.070       .  S
C1190      C1191   1.432       .  A
C1191      C1192   1.396       .  A
C1191      C1198   1.515       .  S
C1192      C1193   1.391       .  A
C1192      H1197   1.086       .  S
C1193      C1194   1.410       .  A
C1194      C1195   1.520       .  S
C1195      F1199   1.385       .  S
C1195      F1200   1.384       .  S
C1195      F1201   1.381       .  S
C1198      F1202   1.380       .  S
C1198      F1203   1.364       .  S
C1198      F1204   1.384       .  S
C1205      C1206   1.401       .  A
C1205      C1210   1.401       .  A
C1205      H1212   1.081       .  S
C1206      C1207   1.432       .  A
C1207      C1208   1.400       .  A
C1207      C1214   1.522       .  S
C1208      C1209   1.393       .  A
C1208      H1213   1.086       .  S
C1209      C1210   1.413       .  A
C1210      C1211   1.516       .  S
C1211      F1215   1.385       .  S
C1211      F1216   1.383       .  S
C1211      F1217   1.379       .  S
C1214      F1218   1.370       .  S
C1214      F1219   1.383       .  S
C1214      F1220   1.384       .  S
C1221      C1222   1.391       .  A
C1221      C1226   1.401       .  A
C1221      H1228   1.085       .  S
C1222      C1223   1.410       .  A
C1223      C1224   1.405       .  A
C1223      C1230   1.516       .  S
C1224      C1225   1.401       .  A
C1224      H1229   1.076       .  S
C1225      C1226   1.428       .  A
C1226      C1227   1.513       .  S
C1227      F1231   1.383       .  S
C1227      F1232   1.372       .  S
C1227      F1233   1.384       .  S
C1230      F1234   1.381       .  S
C1230      F1235   1.379       .  S
C1230      F1236   1.382       .  S
C1237      C1238   1.421       .  A
C1237      C1242   1.420   1_545  A
C1237      H1244   1.073       .  S
C1238      C1239   1.434       .  A
C1239      C1240   1.404   1_545  A
C1239      C1246   1.520       .  S
C1240      C1241   1.399       .  A
C1240      H1245   1.074       .  S
C1241      C1242   1.418       .  A
C1242      C1243   1.515       .  S
C1243      F1247   1.382       .  S
C1243      F1248   1.379       .  S
C1243      F1249   1.383       .  S
C1246      F1250   1.359       .  S
C1246      F1251   1.378       .  S
C1246      F1252   1.385   1_545  S
C1253      C1254   1.398       .  A
C1253      C1258   1.385       .  A
C1253      H1260   1.071       .  S
C1254      C1255   1.422       .  A
C1255      C1256   1.418       .  A
C1255      C1262   1.515       .  S
C1256      C1257   1.414       .  A
C1256      H1261   1.074       .  S
C1257      C1258   1.413       .  A
C1258      C1259   1.512       .  S
C1259      F1263   1.379       .  S
C1259      F1264   1.373       .  S
C1259      F1265   1.386       .  S
C1262      F1266   1.381       .  S
C1262      F1267   1.383       .  S
C1262      F1268   1.385       .  S
C1269      C1270   1.410       .  A
C1269      C1274   1.411       .  A
C1269      H1276   1.083       .  S
C1270      C1271   1.427       .  A
C1271      C1272   1.408       .  A
C1271      C1278   1.508       .  S
C1272      C1273   1.401       .  A
C1272      H1277   1.085       .  S
C1273      C1274   1.418       .  A
C1274      C1275   1.519       .  S
C1275      F1279   1.385       .  S
C1275      F1280   1.380       .  S
C1275      F1281   1.383       .  S
C1278      F1282   1.384       .  S
C1278      F1283   1.367       .  S
C1278      F1284   1.383       .  S
C1285      C1286   1.396       .  A
C1285      C1290   1.404       .  A
C1285      H1292   1.085       .  S
C1286      C1287   1.412       .  A
C1287      C1288   1.403       .  A
C1287      C1294   1.518       .  S
C1288      C1289   1.403       .  A
C1288      H1293   1.078       .  S
C1289      C1290   1.428       .  A
C1290      C1291   1.520       .  S
C1291      F1295   1.382       .  S
C1291      F1296   1.379       .  S
C1291      F1297   1.383       .  S
C1294      F1298   1.382       .  S
C1294      F1299   1.382       .  S
C1294      F1300   1.382       .  S
C1301      C1302   1.404       .  A
C1301      C1306   1.409       .  A
C1301      H1308   1.079       .  S
C1302      C1303   1.411       .  A
C1303      C1304   1.409       .  A
C1303      C1310   1.517       .  S
C1304      C1305   1.407       .  A
C1304      H1309   1.082       .  S
C1305      C1306   1.415       .  A
C1306      C1307   1.516       .  S
C1307      F1311   1.382       .  S
C1307      F1312   1.378       .  S
C1307      F1313   1.374       .  S
C1310      F1314   1.384       .  S
C1310      F1315   1.382       .  S
C1310      F1316   1.384       .  S
C1317      C1318   1.410       .  A
C1317      C1322   1.416   1_545  A
C1317      H1324   1.069       .  S
C1318      C1319   1.438       .  A
C1319      C1320   1.413   1_545  A
C1319      C1326   1.522       .  S
C1320      C1321   1.407       .  A
C1320      H1325   1.067       .  S
C1321      C1322   1.439       .  A
C1322      C1323   1.532       .  S
C1323      F1327   1.384       .  S
C1323      F1328   1.369       .  S
C1323      F1329   1.383       .  S
C1326      F1330   1.381       .  S
C1326      F1331   1.362       .  S
C1326      F1332   1.386   1_545  S
C1333      C1334   1.399       .  A
C1333      C1338   1.409   1_556  A
C1333      H1340   1.075       .  S
C1334      C1335   1.432       .  A
C1335      C1336   1.424   1_556  A
C1335      C1342   1.510       .  S
C1336      C1337   1.408       .  A
C1336      H1341   1.084       .  S
C1337      C1338   1.424       .  A
C1338      C1339   1.520       .  S
C1339      F1343   1.383       .  S
C1339      F1344   1.376       .  S
C1339      F1345   1.383       .  S
C1342      F1346   1.384       .  S
C1342      F1347   1.370       .  S
C1342      F1348   1.382       .  S
C1349      C1350   1.407       .  A
C1349      C1354   1.402       .  A
C1349      H1356   1.079       .  S
C1350      C1351   1.427       .  A
C1351      C1352   1.414       .  A
C1351      C1358   1.525       .  S
C1352      C1353   1.404       .  A
C1352      H1357   1.083       .  S
C1353      C1354   1.408       .  A
C1354      C1355   1.519       .  S
C1355      F1359   1.385       .  S
C1355      F1360   1.383       .  S
C1355      F1361   1.382       .  S
C1358      F1362   1.377       .  S
C1358      F1363   1.376       .  S
C1358      F1364   1.384       .  S
C1365      C1366   1.407       .  A
C1365      C1370   1.408       .  A
C1365      H1372   1.063       .  S
C1366      C1367   1.410       .  A
C1367      C1368   1.408       .  A
C1367      C1374   1.520       .  S
C1368      C1369   1.413       .  A
C1368      H1373   1.082       .  S
C1369      C1370   1.427       .  A
C1370      C1371   1.517       .  S
C1371      F1375   1.384       .  S
C1371      F1376   1.383       .  S
C1371      F1377   1.378       .  S
C1374      F1378   1.386       .  S
C1374      F1379   1.377       .  S
C1374      F1380   1.383       .  S
C1381      C1382   1.407       .  A
C1381      C1386   1.402       .  A
C1381      H1388   1.065       .  S
C1382      C1383   1.428       .  A
C1383      C1384   1.407       .  A
C1383      C1390   1.511       .  S
C1384      C1385   1.400       .  A
C1384      H1389   1.085       .  S
C1385      C1386   1.409       .  A
C1386      C1387   1.520       .  S
C1387      F1391   1.384       .  S
C1387      F1392   1.383       .  S
C1387      F1393   1.382       .  S
C1390      F1394   1.382       .  S
C1390      F1395   1.371       .  S
C1390      F1396   1.378       .  S
C1397      C1398   1.401       .  A
C1397      C1402   1.395       .  A
C1397      H1404   1.069       .  S
C1398      C1399   1.425       .  A
C1399      C1400   1.409       .  A
C1399      C1406   1.519       .  S
C1400      C1401   1.400       .  A
C1400      H1405   1.085       .  S
C1401      C1402   1.413       .  A
C1402      C1403   1.520       .  S
C1403      F1407   1.385   1_655  S
C1403      F1408   1.383       .  S
C1403      F1409   1.371   1_655  S
C1406      F1410   1.384       .  S
C1406      F1411   1.379       .  S
C1406      F1412   1.383       .  S
C1413      C1414   1.404       .  A
C1413      C1418   1.402       .  A
C1413      H1420   1.076       .  S
C1414      C1415   1.426       .  A
C1415      C1416   1.406       .  A
C1415      C1422   1.517       .  S
C1416      C1417   1.399       .  A
C1416      H1421   1.085       .  S
C1417      C1418   1.418       .  A
C1418      C1419   1.516       .  S
C1419      F1423   1.385       .  S
C1419      F1424   1.380       .  S
C1419      F1425   1.383       .  S
C1422      F1426   1.385       .  S
C1422      F1427   1.377       .  S
C1422      F1428   1.381       .  S
C1429      C1430   1.411       .  A
C1429      C1434   1.407       .  A
C1429      H1436   1.083       .  S
C1430      C1431   1.430       .  A
C1431      C1432   1.395       .  A
C1431      C1438   1.511       .  S
C1432      C1433   1.392       .  A
C1432      H1437   1.086       .  S
C1433      C1434   1.407       .  A
C1434      C1435   1.514       .  S
C1435      F1439   1.384       .  S
C1435      F1440   1.383       .  S
C1435      F1441   1.383       .  S
C1438      F1442   1.385       .  S
C1438      F1443   1.357       .  S
C1438      F1444   1.380   1_545  S
C1445      C1446   1.407       .  A
C1445      C1450   1.410       .  A
C1445      H1452   1.080       .  S
C1446      C1447   1.413       .  A
C1447      C1448   1.413       .  A
C1447      C1454   1.509       .  S
C1448      C1449   1.404       .  A
C1448      H1453   1.084       .  S
C1449      C1450   1.413       .  A
C1450      C1451   1.516       .  S
C1451      F1455   1.384       .  S
C1451      F1456   1.383       .  S
C1451      F1457   1.383       .  S
C1454      F1458   1.376       .  S
C1454      F1459   1.374   1_655  S
C1454      F1460   1.383       .  S
C1461      C1462   1.400       .  A
C1461      C1466   1.404       .  A
C1461      H1468   1.082       .  S
C1462      C1463   1.422       .  A
C1463      C1464   1.404       .  A
C1463      C1470   1.520       .  S
C1464      C1465   1.397       .  A
C1464      H1469   1.085       .  S
C1465      C1466   1.413       .  A
C1466      C1467   1.515       .  S
C1467      F1471   1.381       .  S
C1467      F1472   1.381       .  S
C1467      F1473   1.383   1_545  S
C1470      F1474   1.383       .  S
C1470      F1475   1.379       .  S
C1470      F1476   1.383       .  S
C1477      C1478   1.393       .  A
C1477      C1482   1.396   1_545  A
C1477      H1484   1.075       .  S
C1478      C1479   1.420       .  A
C1479      C1480   1.431   1_545  A
C1479      C1486   1.513       .  S
C1480      C1481   1.417       .  A
C1480      H1485   1.069       .  S
C1481      C1482   1.425       .  A
C1482      C1483   1.502       .  S
C1483      F1487   1.379       .  S
C1483      F1488   1.379       .  S
C1483      F1489   1.358       .  S
C1486      F1490   1.379       .  S
C1486      F1491   1.378       .  S
C1486      F1492   1.384   1_545  S
C1493      C1494   1.832       .  A
C1493      C1498   1.802       .  A
C1493      H1500   1.062       .  S
C1494      C1495   1.867       .  A
C1495      C1496   1.840       .  A
C1495      C1502   1.501       .  S
C1496      C1497   1.831       .  A
C1496      H1501   1.084       .  S
C1497      C1498   1.825       .  A
C1498      C1499   1.473       .  S
C1499      F1503   1.380   1_545  S
C1499      F1504   1.379       .  S
C1499      F1505   1.378   1_545  S
C1502      F1506   1.382       .  S
C1502      F1507   1.381       .  S
C1502      F1508   1.381       .  S
C1509      C1510   1.413       .  A
C1509      C1514   1.409       .  A
C1509      H1516   1.067       .  S
C1510      C1511   1.477       .  A
C1511      C1512   1.432       .  A
C1511      C1518   1.627       .  S
C1512      C1513   1.405       .  A
C1512      H1517   1.077       .  S
C1513      C1514   1.414       .  A
C1514      C1515   1.519       .  S
C1515      F1519   1.385       .  S
C1515      F1520   1.383       .  S
C1515      F1521   1.378       .  S
C1518      F1522   2.460       .  S
C1518      F1523   1.409       .  S
C1518      F1524   1.415       .  S
C1525      C1526   1.410       .  A
C1525      C1530   1.403       .  A
C1525      H1532   1.084       .  S
C1526      C1527   1.427       .  A
C1527      C1528   1.396       .  A
C1527      C1534   1.510       .  S
C1528      C1529   1.391       .  A
C1528      H1533   1.086       .  S
C1529      C1530   1.403       .  A
C1530      C1531   1.514       .  S
C1531      F1535   1.384       .  S
C1531      F1536   1.383       .  S
C1531      F1537   1.383       .  S
C1534      F1538   1.376       .  S
C1534      F1539   1.379       .  S
C1534      F1540   1.381       .  S
C1541      C1542   1.399       .  A
C1541      C1546   1.406       .  A
C1541      H1548   1.086       .  S
C1542      C1543   1.407       .  A
C1543      C1544   1.404       .  A
C1543      C1550   1.516       .  S
C1544      C1545   1.411       .  A
C1544      H1549   1.081       .  S
C1545      C1546   1.427       .  A
C1546      C1547   1.515       .  S
C1547      F1551   1.383       .  S
C1547      F1552   1.374       .  S
C1547      F1553   1.379   1_545  S
C1550      F1554   1.383       .  S
C1550      F1555   1.383       .  S
C1550      F1556   1.385       .  S
C1557      C1558   1.410       .  A
C1557      C1562   1.426   1_655  A
C1557      H1564   1.082       .  S
C1558      C1559   1.432       .  A
C1559      C1560   1.398   1_655  A
C1559      C1566   1.505       .  S
C1560      C1561   1.391       .  A
C1560      H1565   1.074       .  S
C1561      C1562   1.434       .  A
C1562      C1563   1.512       .  S
C1563      F1567   1.385       .  S
C1563      F1568   1.382       .  S
C1563      F1569   1.374       .  S
C1566      F1570   1.356       .  S
C1566      F1571   1.372       .  S
C1566      F1572   1.377   1_655  S
C1573      C1574   1.409       .  A
C1573      C1578   1.410       .  A
C1573      H1580   1.082       .  S
C1574      C1575   1.418       .  A
C1575      C1576   1.407       .  A
C1575      C1582   1.507       .  S
C1576      C1577   1.399       .  A
C1576      H1581   1.085       .  S
C1577      C1578   1.411       .  A
C1578      C1579   1.515       .  S
C1579      F1583   1.384       .  S
C1579      F1584   1.383       .  S
C1579      F1585   1.383       .  S
C1582      F1586   1.376       .  S
C1582      F1587   1.379       .  S
C1582      F1588   1.384       .  S
C1589      C1590   1.395       .  A
C1589      C1594   1.405       .  A
C1589      H1596   1.085       .  S
C1590      C1591   1.420       .  A
C1591      C1592   1.412       .  A
C1591      C1598   1.522       .  S
C1592      C1593   1.407       .  A
C1592      H1597   1.081       .  S
C1593      C1594   1.429       .  A
C1594      C1595   1.516       .  S
C1595      F1599   1.383       .  S
C1595      F1600   1.372       .  S
C1595      F1601   1.383       .  S
C1598      F1602   1.380       .  S
C1598      F1603   1.382       .  S
C1598      F1604   1.384       .  S
C1605      C1606   1.409       .  A
C1605      C1610   1.415       .  A
C1605      H1612   1.067       .  S
C1606      C1607   1.419       .  A
C1607      C1608   1.402       .  A
C1607      C1614   1.511       .  S
C1608      C1609   1.402       .  A
C1608      H1613   1.082       .  S
C1609      C1610   1.422       .  A
C1610      C1611   1.518       .  S
C1611      F1615   1.385       .  S
C1611      F1616   1.384       .  S
C1611      F1617   1.375       .  S
C1614      F1618   1.384       .  S
C1614      F1619   1.375       .  S
C1614      F1620   1.381       .  S
C1621      C1622   1.407       .  A
C1621      C1626   1.402       .  A
C1621      H1628   1.075       .  S
C1622      C1623   1.438       .  A
C1623      C1624   1.407       .  A
C1623      C1630   1.525       .  S
C1624      C1625   1.397       .  A
C1624      H1629   1.085       .  S
C1625      C1626   1.405       .  A
C1626      C1627   1.520       .  S
C1627      F1631   1.385       .  S
C1627      F1632   1.381       .  S
C1627      F1633   1.383       .  S
C1630      F1634   1.365       .  S
C1630      F1635   1.379       .  S
C1630      F1636   1.385       .  S
C1637      C1638   1.404       .  A
C1637      C1642   1.424   1_545  A
C1637      H1644   1.084       .  S
C1638      C1639   1.422       .  A
C1639      C1640   1.408   1_545  A
C1639      C1646   1.510       .  S
C1640      C1641   1.403       .  A
C1640      H1645   1.080       .  S
C1641      C1642   1.434       .  A
C1642      C1643   1.504       .  S
C1643      F1647   1.384       .  S
C1643      F1648   1.380       .  S
C1643      F1649   1.369       .  S
C1646      F1650   1.372       .  S
C1646      F1651   1.382   1_545  S
C1646      F1652   1.382       .  S
C1653      C1654   1.421       .  A
C1653      C1658   1.431   1_455  A
C1653      H1660   1.083       .  S
C1654      C1655   1.436       .  A
C1655      C1656   1.399   1_455  A
C1655      C1662   1.514       .  S
C1656      C1657   1.390       .  A
C1656      H1661   1.071       .  S
C1657      C1658   1.425       .  A
C1658      C1659   1.509       .  S
C1659      F1663   1.383       .  S
C1659      F1664   1.381       .  S
C1659      F1665   1.381       .  S
C1662      F1666   1.355       .  S
C1662      F1667   1.378       .  S
C1662      F1668   1.385       .  S
