geometry optimzed in LAMMPS
_audit_creation_date              2020-11-30 
_audit_creation_method            'lammps2cif' 
_symmetry_space_group_name_H-M    'P1' 
_symmetry_Int_Tables_number       1 
_symmetry_cell_setting            triclinic 
loop_ 
_symmetry_equiv_pos_as_xyz 
  x,y,z 
_cell_length_a                    105.12770019 
_cell_length_b                    105.14949016630267 
_cell_length_c                    104.95836568537565 
_cell_angle_alpha                 89.89221285439356 
_cell_angle_beta                  90.02590627937683 
_cell_angle_gamma                 90.00687197960696 
loop_ 
_atom_site_label 
_atom_site_type_symbol 
_atom_site_fract_x 
_atom_site_fract_y 
_atom_site_fract_z 
_atom_site_charge 
N1          N  0.46412112  0.42383684  0.60045440    -0.26000
N2          N  0.46531147  0.43388185  0.59296154    -0.33900
C3          C  0.47525115  0.43213466  0.58513305     0.02300
C4          C  0.48055917  0.42043455  0.58785742     0.08300
C5          C  0.47330758  0.41542070  0.59762661    -0.04800
H6          H  0.47828412  0.43884736  0.57792578     0.09000
H7          H  0.47449016  0.40628347  0.60223124     0.10200
Cu8        Cu  0.45313009  0.44925677  0.59319878     0.44200
Cu9        Cu  0.44987474  0.42189579  0.61384999     0.42000
Cu10       Cu  0.42689759  0.44776699  0.61500121     0.43900
N11         N  0.43901260  0.46285825  0.59396644    -0.33400
N12         N  0.42935907  0.46235187  0.60200533    -0.27700
C13         C  0.42162408  0.47229753  0.59982850    -0.03800
C14         C  0.42664859  0.47932484  0.58988398     0.08400
C15         C  0.43766689  0.47308483  0.58639365     0.02200
H16         H  0.41284398  0.47407587  0.60489456     0.09900
H17         H  0.44413339  0.47564990  0.57879697     0.09000
N18         N  0.42646681  0.43204661  0.62683881    -0.34900
N19         N  0.43474265  0.42259860  0.62636196    -0.27100
C20         C  0.43169935  0.41391558  0.63525488    -0.02300
C21         C  0.42101466  0.41813902  0.64166781     0.06300
C22         C  0.41795908  0.42966010  0.63607763     0.04400
H23         H  0.43699733  0.40527361  0.63701398     0.09500
H24         H  0.41003422  0.43578618  0.63839479     0.08300
N25         N  0.40454938  0.53922659  0.53952693    -0.26000
N26         N  0.41360322  0.53049638  0.53952351    -0.33900
C27         C  0.41987928  0.53106010  0.52837505     0.02300
C28         C  0.41447151  0.54058419  0.52105822     0.08300
C29         C  0.40480030  0.54555929  0.52840817    -0.04800
H30         H  0.42775979  0.52496825  0.52580238     0.09000
H31         H  0.39843563  0.55325549  0.52591607     0.10200
Cu32       Cu  0.41684166  0.51805858  0.55451739     0.44200
Cu33       Cu  0.39217194  0.54232890  0.55447450     0.42000
Cu34       Cu  0.39438688  0.52055507  0.58066224     0.43900
N35         N  0.41692590  0.50617318  0.57028632    -0.33400
N36         N  0.40851875  0.50691472  0.57962327    -0.27700
C37         C  0.41076021  0.49756209  0.58806821    -0.03800
C38         C  0.42110516  0.49065038  0.58387332     0.08400
C39         C  0.42481137  0.49636597  0.57259495     0.02200
H40         H  0.40522533  0.49591441  0.59660009     0.09900
H41         H  0.43248347  0.49346440  0.56637931     0.09000
N42         N  0.38178746  0.53565831  0.58025310    -0.34900
N43         N  0.38104101  0.54371895  0.57062339    -0.27100
C44         C  0.37252149  0.55280794  0.57343670    -0.02300
C45         C  0.36766526  0.55038391  0.58547190     0.06300
C46         C  0.37374827  0.53938732  0.58947593     0.04400
H47         H  0.37014098  0.56064300  0.56718682     0.09500
H48         H  0.37279629  0.53469772  0.59860586     0.08300
N49         N  0.54367392  0.40214093  0.53993967    -0.26000
N50         N  0.53495948  0.41119437  0.54056057    -0.33900
C51         C  0.53678671  0.41950667  0.53100081     0.02300
C52         C  0.54715394  0.41553023  0.52400978     0.08300
C53         C  0.55131202  0.40450244  0.52992441    -0.04800
H54         H  0.53096140  0.42781549  0.52928581     0.09000
H55         H  0.55927853  0.39861137  0.52715754     0.10200
Cu56       Cu  0.52084193  0.41210808  0.55415849     0.44200
Cu57       Cu  0.54480630  0.38699769  0.55273180     0.42000
Cu58       Cu  0.52003468  0.38670111  0.57674676     0.43900
N59         N  0.50745292  0.41086794  0.56844868    -0.33400
N60         N  0.50703880  0.40135794  0.57667148    -0.27700
C61         C  0.49736084  0.40323317  0.58479991    -0.03800
C62         C  0.49145577  0.41450644  0.58152527     0.08400
C63         C  0.49807382  0.41911066  0.57112191     0.02200
H64         H  0.49494232  0.39694136  0.59259824     0.09900
H65         H  0.49626020  0.42780245  0.56589890     0.09000
N66         N  0.53474163  0.37376638  0.57615650    -0.34900
N67         N  0.54376191  0.37363891  0.56738415    -0.27100
C68         C  0.55216895  0.36441414  0.57030798    -0.02300
C69         C  0.54828004  0.35862190  0.58152531     0.06300
C70         C  0.53719985  0.36479112  0.58492282     0.04400
H71         H  0.56081211  0.36252810  0.56505030     0.09500
H72         H  0.53149829  0.36312661  0.59334163     0.08300
N73         N  0.56470217  0.42599177  0.49606588    -0.26000
N74         N  0.55592881  0.43498270  0.49662445    -0.33900
C75         C  0.54832003  0.43267714  0.50667567     0.02300
C76         C  0.55254208  0.42171177  0.51266217     0.08300
C77         C  0.56292389  0.41773679  0.50568413    -0.04800
H78         H  0.54031594  0.43853966  0.50939497     0.09000
H79         H  0.56878201  0.40946015  0.50744129     0.10200
Cu80       Cu  0.55479067  0.44988607  0.48362399     0.44200
Cu81       Cu  0.57878934  0.42517438  0.48240220     0.42000
Cu82       Cu  0.57934859  0.44995582  0.45898914     0.43900
N83         N  0.55625026  0.46355995  0.46936094    -0.33400
N84         N  0.56522178  0.46359603  0.46052255    -0.27700
C85         C  0.56364183  0.47379811  0.45294585    -0.03800
C86         C  0.55317205  0.48048906  0.45719193     0.08400
C87         C  0.54869130  0.47373446  0.46758969     0.02200
H88         H  0.56969481  0.47615356  0.44494979     0.09900
H89         H  0.54061941  0.47609499  0.47352242     0.09000
N90         N  0.59233504  0.43514294  0.45929293    -0.34900
N91         N  0.59204186  0.42598917  0.46791547    -0.27100
C92         C  0.60118970  0.41747097  0.46529686    -0.02300
C93         C  0.60758595  0.42143384  0.45446155     0.06300
C94         C  0.60172723  0.43271866  0.45094674     0.04400
H95         H  0.60291712  0.40894352  0.47081057     0.09500
H96         H  0.60376856  0.43847032  0.44263976     0.08300
N97         N  0.50611597  0.54384552  0.43782635    -0.26000
N98         N  0.50604777  0.53438013  0.44613010    -0.33900
C99         C  0.49493005  0.53434277  0.45240152     0.02300
C100        C  0.48764195  0.54424914  0.44780606     0.08300
C101        C  0.49498533  0.55009307  0.43857099    -0.04800
H102        H  0.49236909  0.52757084  0.45973635     0.09000
H103        H  0.49248784  0.55830872  0.43287731     0.10200
Cu104      Cu  0.52073252  0.52164034  0.44847899     0.44200
Cu105      Cu  0.52136502  0.54780869  0.42600981     0.42000
Cu106      Cu  0.54737945  0.52478604  0.42764855     0.43900
N107        N  0.53558779  0.50888967  0.44826341    -0.33400
N108        N  0.54536257  0.50983021  0.44041710    -0.27700
C109        C  0.55315525  0.49985728  0.44233813    -0.03800
C110        C  0.54799629  0.49235343  0.45188596     0.08400
C111        C  0.53687535  0.49836991  0.45542396     0.02200
H112        H  0.56192199  0.49822889  0.43719911     0.09900
H113        H  0.53013323  0.49528841  0.46257517     0.09000
N114        N  0.54738768  0.54089060  0.41618919    -0.34900
N115        N  0.53801888  0.54925772  0.41559608    -0.27100
C116        C  0.54124721  0.55858493  0.40742927    -0.02300
C117        C  0.55325207  0.55598628  0.40265389     0.06300
C118        C  0.55680690  0.54466964  0.40841869     0.04400
H119        H  0.53536889  0.56677400  0.40535925     0.09500
H120        H  0.56555756  0.53945190  0.40701957     0.08300
N121        N  0.45669236  0.55804617  0.45434331    -0.26000
N122        N  0.45715722  0.54912767  0.46321390    -0.33900
C123        C  0.46814234  0.54271332  0.46211758     0.02300
C124        C  0.47490141  0.54789828  0.45208926     0.08300
C125        C  0.46738065  0.55757973  0.44735146    -0.04800
H126        H  0.47109038  0.53506004  0.46835632     0.09000
H127        H  0.46956801  0.56394510  0.43954489     0.10200
Cu128      Cu  0.44330159  0.54668681  0.47689634     0.44200
Cu129      Cu  0.44179926  0.57067833  0.45246826     0.42000
Cu130      Cu  0.41646260  0.56846168  0.47560007     0.43900
N131        N  0.42920621  0.54743735  0.49052560    -0.33400
N132        N  0.41951489  0.55544662  0.49017278    -0.27700
C133        C  0.41264524  0.55406863  0.50088380    -0.03800
C134        C  0.41830495  0.54475542  0.50827945     0.08400
C135        C  0.42874962  0.54072720  0.50142150     0.02200
H136        H  0.40432030  0.55964222  0.50321970     0.09900
H137        H  0.43573774  0.53373111  0.50428645     0.09000
N138        N  0.41644725  0.58124744  0.46051120    -0.34900
N139        N  0.42589184  0.58216572  0.45225586    -0.27100
C140        C  0.42340731  0.59162692  0.44401692    -0.02300
C141        C  0.41179483  0.59691669  0.44717629     0.06300
C142        C  0.40761628  0.59007135  0.45766284     0.04400
H143        H  0.42960063  0.59439968  0.43626625     0.09500
H144        H  0.39898077  0.59161284  0.46304343     0.08300
N145        N  0.56259083  0.00741865  0.07849290    -0.26000
N146        N  0.55364680  0.00726201  0.06963777    -0.33900
C147        C  0.54730153  0.99619516  0.07033360     0.02300
C148        C  0.55255311  0.98905762  0.08006791     0.08300
C149        C  0.56221808  0.99643115  0.08504175    -0.04800
H150        H  0.53951340  0.99353618  0.06414673     0.09000
H151        H  0.56848302  0.99404395  0.09286748     0.10200
Cu152      Cu  0.55063258  0.02190052  0.05683813     0.44200
Cu153      Cu  0.57477128  0.02256616  0.08144382     0.42000
Cu154      Cu  0.57099206  0.04956427  0.06054915     0.43900
N155        N  0.55039597  0.03733374  0.04462770    -0.33400
N156        N  0.55788864  0.04736326  0.04584937    -0.27700
C157        C  0.55594536  0.05521574  0.03589834    -0.03800
C158        C  0.54678385  0.04986310  0.02810098     0.08400
C159        C  0.54344517  0.03856320  0.03394455     0.02200
H160        H  0.56101128  0.06403805  0.03434144     0.09900
H161        H  0.53677584  0.03153285  0.03048543     0.09000
N162        N  0.58409624  0.04892740  0.07540669    -0.34900
N163        N  0.58547069  0.03899582  0.08301428    -0.27100
C164        C  0.59476862  0.04140384  0.09147613    -0.02300
C165        C  0.59955609  0.05344555  0.08908467     0.06300
C166        C  0.59253641  0.05792194  0.07881199     0.04400
H167        H  0.59797420  0.03473916  0.09865325     0.09500
H168        H  0.59343051  0.06707206  0.07417304     0.08300
N169        N  0.54029241  0.06564791  0.99787628    -0.26000
N170        N  0.53116642  0.05698537  0.99795809    -0.33900
C171        C  0.53204474  0.05009108  0.00872755     0.02300
C172        C  0.54213822  0.05470128  0.01579586     0.08300
C173        C  0.54713991  0.06456978  0.00865736    -0.04800
H174        H  0.52573505  0.04235788  0.01124825     0.09000
H175        H  0.55526746  0.07042229  0.01101815     0.10200
Cu176      Cu  0.51751534  0.05524145  0.98379082     0.44200
Cu177      Cu  0.54328998  0.07833507  0.98299203     0.42000
Cu178      Cu  0.51903882  0.07863903  0.95856110     0.43900
N179        N  0.50381924  0.05696072  0.96965445    -0.33400
N180        N  0.50424012  0.06567510  0.96056470    -0.27700
C181        C  0.49372180  0.06467350  0.95331592    -0.03800
C182        C  0.48633887  0.05486279  0.95808062     0.08400
C183        C  0.49304368  0.05016995  0.96842034     0.02200
H184        H  0.49159091  0.07069565  0.94522498     0.09900
H185        H  0.49022561  0.04251208  0.97471199     0.09000
N186        N  0.53512789  0.09013264  0.95811111    -0.34900
N187        N  0.54415781  0.08980015  0.96687771    -0.27100
C188        C  0.55344880  0.09797642  0.96357571    -0.02300
C189        C  0.55004853  0.10384354  0.95224467     0.06300
C190        C  0.53836169  0.09864154  0.94908355     0.04400
H191        H  0.56196511  0.09965208  0.96911487     0.09500
H192        H  0.53272096  0.10070998  0.94070887     0.08300
N193        N  0.41881031  0.01196655  0.94328086    -0.26000
N194        N  0.42815855  0.01166099  0.95169269    -0.33900
C195        C  0.42674846  0.00134733  0.95915979     0.02300
C196        C  0.41598499  0.99485509  0.95524370     0.08300
C197        C  0.41118204  0.00185798  0.94515664    -0.04800
H198        H  0.43317496  0.99870822  0.96676963     0.09000
H199        H  0.40285420  0.99970794  0.93949878     0.10200
Cu200      Cu  0.44254863  0.02514311  0.95224624     0.44200
Cu201      Cu  0.41723157  0.02600456  0.92950209     0.42000
Cu202      Cu  0.44209549  0.05019518  0.92819395     0.43900
N203        N  0.45638830  0.03911196  0.95061295    -0.33400
N204        N  0.45633415  0.04820106  0.94187760    -0.27700
C205        C  0.46691366  0.05530100  0.94324642    -0.03800
C206        C  0.47392938  0.05041899  0.95330193     0.08400
C207        C  0.46695235  0.04019517  0.95775475     0.02200
H208        H  0.46937943  0.06331657  0.93726122     0.09900
H209        H  0.46945416  0.03385173  0.96548509     0.09000
N210        N  0.42675288  0.04937879  0.91563599    -0.34900
N211        N  0.41771444  0.04065093  0.91628820    -0.27100
C212        C  0.40916830  0.04276513  0.90700052    -0.02300
C213        C  0.41298449  0.05330119  0.90008049     0.06300
C214        C  0.42419903  0.05724258  0.90581943     0.04400
H215        H  0.40087597  0.03691242  0.90531484     0.09500
H216        H  0.42998126  0.06534274  0.90319055     0.08300
N217        N  0.51116210  0.92103114  0.09435106    -0.26000
N218        N  0.51053752  0.93074390  0.08637567    -0.33900
C219        C  0.49937678  0.93043276  0.08019655     0.02300
C220        C  0.49262629  0.92007329  0.08458141     0.08300
C221        C  0.50032753  0.91430050  0.09355881    -0.04800
H222        H  0.49635617  0.93735696  0.07318496     0.09000
H223        H  0.49827401  0.90582362  0.09904248     0.10200
Cu224      Cu  0.52434775  0.94447368  0.08477998     0.44200
Cu225      Cu  0.52669663  0.91757392  0.10584793     0.42000
Cu226      Cu  0.55106046  0.94236204  0.10583897     0.43900
N227        N  0.53796304  0.95841683  0.08621911    -0.33400
N228        N  0.54772642  0.95781909  0.09411906    -0.27700
C229        C  0.55448520  0.96863291  0.09316887    -0.03800
C230        C  0.54865252  0.97632569  0.08420201     0.08400
C231        C  0.53822299  0.96956465  0.07998725     0.02200
H232        H  0.56296505  0.97072581  0.09861811     0.09900
H233        H  0.53122012  0.97256722  0.07305206     0.09000
N234        N  0.55183143  0.92601004  0.11676182    -0.34900
N235        N  0.54305970  0.91700709  0.11668461    -0.27100
C236        C  0.54616486  0.90807240  0.12528349    -0.02300
C237        C  0.55739748  0.91165990  0.13115003     0.06300
C238        C  0.56073643  0.92305854  0.12544851     0.04400
H239        H  0.54050068  0.89970447  0.12722216     0.09500
H240        H  0.56872493  0.92909398  0.12781024     0.08300
N241        N  0.46191923  0.90561659  0.07863232    -0.26000
N242        N  0.46262661  0.91359328  0.06891227    -0.33900
C243        C  0.47353347  0.92017611  0.06971905     0.02300
C244        C  0.48000151  0.91603185  0.08039580     0.08300
C245        C  0.47239493  0.90682469  0.08585044    -0.04800
H246        H  0.47669069  0.92713469  0.06280426     0.09000
H247        H  0.47439913  0.90124398  0.09428553     0.10200
Cu248      Cu  0.44938340  0.91448795  0.05443104     0.44200
Cu249      Cu  0.44725591  0.89291654  0.08126316     0.42000
Cu250      Cu  0.42485125  0.89049479  0.05523696     0.43900
N251        N  0.43539187  0.91289713  0.04073632    -0.33400
N252        N  0.42653308  0.90397615  0.04086826    -0.27700
C253        C  0.41881208  0.90566921  0.03078924    -0.03800
C254        C  0.42301459  0.91618454  0.02405791     0.08400
C255        C  0.43354271  0.92052787  0.03061845     0.02200
H256        H  0.41059096  0.89984570  0.02869896     0.09900
H257        H  0.43936347  0.92869847  0.02831179     0.09000
N258        N  0.42402660  0.87944201  0.07162063    -0.34900
N259        N  0.43216052  0.88044714  0.08116468    -0.27100
C260        C  0.42873326  0.87242916  0.09053199    -0.02300
C261        C  0.41784976  0.86608561  0.08674346     0.06300
C262        C  0.41515923  0.87075793  0.07468390     0.04400
H263        H  0.43360844  0.87159317  0.09957351     0.09500
H264        H  0.40729777  0.86811518  0.06858636     0.08300
N265        N  0.40458191  0.92532490  0.99618982    -0.26000
N266        N  0.41258464  0.93499893  0.99685428    -0.33900
C267        C  0.42048126  0.93317704  0.00677608     0.02300
C268        C  0.41722248  0.92184271  0.01263939     0.08300
C269        C  0.40711148  0.91712139  0.00569236    -0.04800
H270        H  0.42789525  0.93972290  0.00961222     0.09000
H271        H  0.40192354  0.90840242  0.00742530     0.10200
Cu272      Cu  0.41200504  0.95045213  0.98456746     0.44200
Cu273      Cu  0.39055147  0.92371626  0.98248244     0.42000
Cu274      Cu  0.38647991  0.95069207  0.96131304     0.43900
N275        N  0.40900069  0.96513611  0.97169883    -0.33400
N276        N  0.39960604  0.96534324  0.96331604    -0.27700
C277        C  0.40051458  0.97602715  0.95628594    -0.03800
C278        C  0.41099210  0.98283275  0.96044570     0.08400
C279        C  0.41612456  0.97565951  0.97023236     0.02200
H280        H  0.39416047  0.97851617  0.94856460     0.09900
H281        H  0.42453092  0.97781388  0.97577009     0.09000
N282        N  0.37585666  0.93406128  0.96012997    -0.34900
N283        N  0.37752368  0.92415931  0.96772513    -0.27100
C284        C  0.36975339  0.91470106  0.96403751    -0.02300
C285        C  0.36280451  0.91883916  0.95361946     0.06300
C286        C  0.36691164  0.93117804  0.95143910     0.04400
H287        H  0.36922160  0.90550139  0.96863601     0.09500
H288        H  0.36392956  0.93747278  0.94384096     0.08300
N289        N  0.04487342  0.56486573  0.03928327    -0.26000
N290        N  0.03633131  0.55561693  0.03930362    -0.33900
C291        C  0.03879615  0.54763543  0.02962299     0.02300
C292        C  0.04934972  0.55206373  0.02313443     0.08300
C293        C  0.05295450  0.56301875  0.02949305    -0.04800
H294        H  0.03325052  0.53924735  0.02745096     0.09000
H295        H  0.06092357  0.56913542  0.02725295     0.10200
Cu296      Cu  0.02154802  0.55403053  0.05231195     0.44200
Cu297      Cu  0.04544454  0.57933060  0.05286900     0.42000
Cu298      Cu  0.02019218  0.57848369  0.07618662     0.43900
N299        N  0.00771982  0.55467597  0.06639841    -0.33400
N300        N  0.00724715  0.56374003  0.07509060    -0.27700
C301        C  0.99742668  0.56151187  0.08296892    -0.03800
C302        C  0.99141220  0.55051031  0.07905431     0.08400
C303        C  0.99816337  0.54641655  0.06850731     0.02200
H304        H  0.99491075  0.56745251  0.09098611     0.09900
H305        H  0.99631182  0.53805330  0.06281341     0.09000
N306        N  0.03494836  0.59145714  0.07671850    -0.34900
N307        N  0.04430481  0.59175690  0.06831842    -0.27100
C308        C  0.05274112  0.60070568  0.07189304    -0.02300
C309        C  0.04847500  0.60630434  0.08308305     0.06300
C310        C  0.03713065  0.60019299  0.08579914     0.04400
H311        H  0.06138784  0.60289676  0.06675938     0.09500
H312        H  0.03112292  0.60161782  0.09403600     0.08300
N313        N  0.06713831  0.54303021  0.99468205    -0.26000
N314        N  0.05948565  0.53312609  0.99594038    -0.33900
C315        C  0.05215179  0.53477527  0.00629307     0.02300
C316        C  0.05531972  0.54626648  0.01184412     0.08300
C317        C  0.06488331  0.55124495  0.00425648    -0.04800
H318        H  0.04492521  0.52815159  0.00943423     0.09000
H319        H  0.06967437  0.56027114  0.00544868     0.10200
Cu320      Cu  0.05882661  0.51803780  0.98325971     0.44200
Cu321      Cu  0.07985852  0.54501403  0.97963653     0.42000
Cu322      Cu  0.07952929  0.51979486  0.95591657     0.43900
N323        N  0.05919665  0.50444462  0.96898024    -0.33400
N324        N  0.06686036  0.50508185  0.95901893    -0.27700
C325        C  0.06494777  0.49485706  0.95160384    -0.03800
C326        C  0.05559454  0.48745567  0.95714592     0.08400
C327        C  0.05212622  0.49381426  0.96812997     0.02200
H328        H  0.06999076  0.49298518  0.94282162     0.09900
H329        H  0.04509091  0.49088827  0.97505979     0.09000
N330        N  0.09123690  0.53555816  0.95492722    -0.34900
N331        N  0.09135396  0.54473501  0.96351720    -0.27100
C332        C  0.09982755  0.55361708  0.95993130    -0.02300
C333        C  0.10530914  0.54987351  0.94852413     0.06300
C334        C  0.09963116  0.53834465  0.94567123     0.04400
H335        H  0.10187583  0.56214006  0.96530788     0.09500
H336        H  0.10122466  0.53252694  0.93733608     0.08300
N337        N  0.01149327  0.42120587  0.94049889    -0.26000
N338        N  0.01104046  0.43029310  0.94917953    -0.33900
C339        C  0.00025505  0.42905273  0.95595376     0.02300
C340        C  0.99360551  0.41872078  0.95127175     0.08300
C341        C  0.00100444  0.41395738  0.94149883    -0.04800
H342        H  0.99736863  0.43536767  0.96354685     0.09000
H343        H  0.99885944  0.40593625  0.93542634     0.10200
Cu344      Cu  0.02468463  0.44441917  0.95095218     0.44200
Cu345      Cu  0.02602615  0.41930573  0.92732666     0.42000
Cu346      Cu  0.05022619  0.44354633  0.92773292     0.43900
N347        N  0.03886028  0.45807663  0.94970707    -0.33400
N348        N  0.04805345  0.45778744  0.94111807    -0.27700
C349        C  0.05537709  0.46816751  0.94246319    -0.03800
C350        C  0.05059938  0.47530700  0.95240407     0.08400
C351        C  0.04014154  0.46864043  0.95680852     0.02200
H352        H  0.06356533  0.47033792  0.93661069     0.09900
H353        H  0.03381782  0.47134100  0.96446940     0.09000
N354        N  0.05009828  0.42863217  0.91492334    -0.34900
N355        N  0.04127790  0.41968109  0.91485688    -0.27100
C356        C  0.04396423  0.41127177  0.90562005    -0.02300
C357        C  0.05499592  0.41514093  0.89954589     0.06300
C358        C  0.05860504  0.42620869  0.90567992     0.04400
H359        H  0.03825839  0.40298685  0.90346545     0.09500
H360        H  0.06695295  0.43192323  0.90378605     0.08300
N361        N  0.96332675  0.54113144  0.09703784    -0.26000
N362        N  0.96361907  0.53205354  0.08833469    -0.33900
C363        C  0.97378076  0.53383327  0.08075773     0.02300
C364        C  0.98015482  0.54456579  0.08486198     0.08300
C365        C  0.97330170  0.54893049  0.09521745    -0.04800
H366        H  0.97615090  0.52792042  0.07267560     0.09000
H367        H  0.97522833  0.55732585  0.10083802     0.10200
Cu368      Cu  0.94982185  0.51811921  0.08651322     0.44200
Cu369      Cu  0.94899220  0.54309976  0.11050357     0.42000
Cu370      Cu  0.92382281  0.51977109  0.10883481     0.43900
N371        N  0.93454755  0.50568851  0.08633015    -0.33400
N372        N  0.92508561  0.50624202  0.09459835    -0.27700
C373        C  0.91674641  0.49689860  0.09204354    -0.03800
C374        C  0.92117110  0.49016748  0.08164893     0.08400
C375        C  0.93246586  0.49599642  0.07824986     0.02200
H376        H  0.90811319  0.49515687  0.09737288     0.09900
H377        H  0.93876122  0.49335415  0.07054508     0.09000
N378        N  0.92398218  0.53469078  0.12166446    -0.34900
N379        N  0.93313838  0.54327242  0.12230446    -0.27100
C380        C  0.93020821  0.55177410  0.13140935    -0.02300
C381        C  0.91862385  0.54838252  0.13676635     0.06300
C382        C  0.91499945  0.53747974  0.13032088     0.04400
H383        H  0.93597966  0.55996086  0.13374137     0.09500
H384        H  0.90650890  0.53187463  0.13184563     0.08300
N385        N  0.90254250  0.46268981  0.07197707    -0.26000
N386        N  0.91148686  0.46257558  0.06314070    -0.33900
C387        C  0.91942735  0.47241020  0.06510411     0.02300
C388        C  0.91524072  0.47900518  0.07569439     0.08300
C389        C  0.90451034  0.47260029  0.07979768    -0.04800
H390        H  0.92768947  0.47450362  0.05932919     0.09000
H391        H  0.89867251  0.47482886  0.08798105     0.10200
Cu392      Cu  0.91246882  0.44881956  0.04910124     0.44200
Cu393      Cu  0.88842197  0.44906264  0.07325248     0.42000
Cu394      Cu  0.88925335  0.42297671  0.05080345     0.43900
N395        N  0.91130299  0.43412289  0.03605942    -0.33400
N396        N  0.90294228  0.42473234  0.03662382    -0.27700
C397        C  0.90481456  0.41693268  0.02664578    -0.03800
C398        C  0.91483132  0.42165211  0.01951878     0.08400
C399        C  0.91870927  0.43254008  0.02575587     0.02200
H400        H  0.89931895  0.40844101  0.02476768     0.09900
H401        H  0.92636763  0.43886034  0.02304430     0.09000
N402        N  0.87593640  0.42450100  0.06535608    -0.34900
N403        N  0.87556975  0.43417877  0.07335262    -0.27100
C404        C  0.86576802  0.43261571  0.08140540    -0.02300
C405        C  0.85960503  0.42135738  0.07842241     0.06300
C406        C  0.86637194  0.41646808  0.06817134     0.04400
H407        H  0.86327978  0.43932721  0.08878444     0.09500
H408        H  0.86463805  0.40762949  0.06321563     0.08300
N409        N  0.96322059  0.40311513  0.95686461    -0.26000
N410        N  0.96300805  0.41180611  0.96594018    -0.33900
C411        C  0.97377027  0.41869449  0.96536345     0.02300
C412        C  0.98109573  0.41408090  0.95545588     0.08300
C413        C  0.97412801  0.40420849  0.95027315    -0.04800
H414        H  0.97610334  0.42641987  0.97174245     0.09000
H415        H  0.97677804  0.39822997  0.94232769     0.10200
Cu416      Cu  0.94828470  0.41354536  0.97892077     0.44200
Cu417      Cu  0.94881424  0.39000774  0.95412671     0.42000
Cu418      Cu  0.92429091  0.38885094  0.97852012     0.43900
N419        N  0.93331158  0.41258370  0.99170151    -0.33400
N420        N  0.92467991  0.40343784  0.99175321    -0.27700
C421        C  0.91664791  0.40532189  0.00154645    -0.03800
C422        C  0.92043989  0.41616857  0.00794071     0.08400
C423        C  0.93099988  0.42054284  0.00142780     0.02200
H424        H  0.90872963  0.39917767  0.00389064     0.09900
H425        H  0.93674847  0.42876185  0.00371413     0.09000
N426        N  0.92519310  0.37652323  0.96317391    -0.34900
N427        N  0.93389232  0.37719010  0.95411873    -0.27100
C428        C  0.93139152  0.36833087  0.94525613    -0.02300
C429        C  0.92059975  0.36168529  0.94890496     0.06300
C430        C  0.91697471  0.36715734  0.96035835     0.04400
H431        H  0.93689016  0.36708534  0.93664600     0.09500
H432        H  0.90895817  0.36458058  0.96627223     0.08300
N433        N  0.00672651  0.04407984  0.59549649    -0.26000
N434        N  0.00711802  0.03492509  0.58689409    -0.33900
C435        C  0.99603294  0.03464845  0.58050570     0.02300
C436        C  0.98827965  0.04410899  0.58529787     0.08300
C437        C  0.99534539  0.04989690  0.59480333    -0.04800
H438        H  0.99386360  0.02813286  0.57284257     0.09000
H439        H  0.99251782  0.05787237  0.60065064     0.10200
Cu440      Cu  0.02271554  0.02330346  0.58416734     0.44200
Cu441      Cu  0.02194839  0.04841976  0.60738600     0.42000
Cu442      Cu  0.05019363  0.02846394  0.60416935     0.43900
N443        N  0.03863688  0.01180182  0.58399913    -0.33400
N444        N  0.04861611  0.01342101  0.59148932    -0.27700
C445        C  0.05685860  0.00381343  0.58955959    -0.03800
C446        C  0.05179105  0.99585059  0.58037627     0.08400
C447        C  0.04027088  0.00122358  0.57705094     0.02200
H448        H  0.06577364  0.00264355  0.59457818     0.09900
H449        H  0.03338790  0.99754240  0.57033900     0.09000
N450        N  0.04905120  0.04414191  0.61610539    -0.34900
N451        N  0.03874718  0.05122825  0.61747482    -0.27100
C452        C  0.04109785  0.06030952  0.62618106    -0.02300
C453        C  0.05349810  0.05893194  0.63043468     0.06300
C454        C  0.05824374  0.04859623  0.62381505     0.04400
H455        H  0.03429426  0.06744036  0.62911960     0.09500
H456        H  0.06759568  0.04440490  0.62475594     0.08300
N457        N  0.06860806  0.96644190  0.57320102    -0.26000
N458        N  0.05940708  0.96606398  0.56461818    -0.33900
C459        C  0.05216582  0.97651713  0.56578074     0.02300
C460        C  0.05706228  0.98385641  0.57552790     0.08300
C461        C  0.06750363  0.97721522  0.58002155    -0.04800
H462        H  0.04388742  0.97855153  0.56000203     0.09000
H463        H  0.07366554  0.97985183  0.58784095     0.10200
Cu464      Cu  0.05691949  0.95141712  0.55170795     0.44200
Cu465      Cu  0.08171117  0.95190825  0.57564645     0.42000
Cu466      Cu  0.07957097  0.92570388  0.55327458     0.43900
N467        N  0.05682244  0.93614451  0.53929731    -0.33400
N468        N  0.06525933  0.92683487  0.53974824    -0.27700
C469        C  0.06274367  0.91849807  0.53038775    -0.03800
C470        C  0.05220292  0.92276505  0.52375521     0.08400
C471        C  0.04868199  0.93397144  0.52965383     0.02200
H472        H  0.06815686  0.90993417  0.52860974     0.09900
H473        H  0.04083046  0.94012557  0.52711632     0.09000
N474        N  0.09202700  0.92609102  0.56857066    -0.34900
N475        N  0.09274053  0.93559641  0.57675552    -0.27100
C476        C  0.10127116  0.93265610  0.58583309    -0.02300
C477        C  0.10622313  0.92071107  0.58326050     0.06300
C478        C  0.10011511  0.91686603  0.57220508     0.04400
H479        H  0.10340414  0.93866379  0.59390759     0.09500
H480        H  0.10142023  0.90802908  0.56711880     0.08300
N481        N  0.04196410  0.90349178  0.49689522    -0.26000
N482        N  0.03292827  0.91224706  0.49692146    -0.33900
C483        C  0.03515261  0.92045724  0.50648589     0.02300
C484        C  0.04609105  0.91665628  0.51275458     0.08300
C485        C  0.05014798  0.90587964  0.50643594    -0.04800
H486        H  0.02922650  0.92856643  0.50870515     0.09000
H487        H  0.05847519  0.90021079  0.50854744     0.10200
Cu488      Cu  0.01792202  0.91260916  0.48405877     0.44200
Cu489      Cu  0.04309209  0.88875120  0.48387187     0.42000
Cu490      Cu  0.01756453  0.88655402  0.46136087     0.43900
N491        N  0.00376204  0.91004119  0.47050758    -0.33400
N492        N  0.00360694  0.90043519  0.46239158    -0.27700
C493        C  0.99307108  0.90120969  0.45517926    -0.03800
C494        C  0.98625019  0.91179179  0.45892718     0.08400
C495        C  0.99330714  0.91720256  0.46864585     0.02200
H496        H  0.99052220  0.89446920  0.44783489     0.09900
H497        H  0.99093299  0.92558784  0.47410816     0.09000
N498        N  0.03315193  0.87448606  0.46117810    -0.34900
N499        N  0.04259555  0.87535468  0.46942921    -0.27100
C500        C  0.05163401  0.86685855  0.46633986    -0.02300
C501        C  0.04772411  0.86030661  0.45556740     0.06300
C502        C  0.03591136  0.86539611  0.45261541     0.04400
H503        H  0.06046773  0.86569133  0.47149368     0.09500
H504        H  0.02999475  0.86309519  0.44450740     0.08300
N505        N  0.91949680  0.05515247  0.54289575    -0.26000
N506        N  0.92886555  0.04676282  0.54250361    -0.33900
C507        C  0.92742183  0.03947356  0.53205841     0.02300
C508        C  0.91670411  0.04356516  0.52555234     0.08300
C509        C  0.91192500  0.05349438  0.53270474    -0.04800
H510        H  0.93390087  0.03200258  0.52922522     0.09000
H511        H  0.90364490  0.05922844  0.53058436     0.10200
Cu512      Cu  0.94367831  0.04629682  0.55571660     0.44200
Cu513      Cu  0.91760780  0.06898086  0.55682065     0.42000
Cu514      Cu  0.94277763  0.07107557  0.57987690     0.43900
N515        N  0.95774371  0.04890505  0.56948097    -0.33400
N516        N  0.95735648  0.05797032  0.57819508    -0.27700
C517        C  0.96800251  0.05748021  0.58527762    -0.03800
C518        C  0.97548893  0.04765818  0.58081766     0.08400
C519        C  0.96869681  0.04239722  0.57081596     0.02200
H520        H  0.97022252  0.06398307  0.59293725     0.09900
H521        H  0.97161401  0.03460649  0.56476668     0.09000
N522        N  0.92734224  0.08328074  0.57962102    -0.34900
N523        N  0.91807596  0.08250372  0.57116343    -0.27100
C524        C  0.90949647  0.09167634  0.57353369    -0.02300
C525        C  0.91352348  0.09858559  0.58404371     0.06300
C526        C  0.92490994  0.09294972  0.58761928     0.04400
H527        H  0.90103531  0.09325025  0.56788451     0.09500
H528        H  0.93089564  0.09547490  0.59560573     0.08300
N529        N  0.89870247  0.00003285  0.45876088    -0.26000
N530        N  0.90657179  0.99923047  0.46856972    -0.33900
C531        C  0.91318584  0.98834639  0.46777857     0.02300
C532        C  0.90932260  0.98194616  0.45697972     0.08300
C533        C  0.90009348  0.98958250  0.45148038    -0.04800
H534        H  0.92039216  0.98540305  0.47452629     0.09000
H535        H  0.89499875  0.98784130  0.44269691     0.10200
Cu536      Cu  0.90849254  0.01282196  0.48265926     0.44200
Cu537      Cu  0.88701323  0.01565598  0.45544077     0.42000
Cu538      Cu  0.88888990  0.04029712  0.47986680     0.43900
N539        N  0.90837558  0.02711121  0.49617062    -0.33400
N540        N  0.90085554  0.03714137  0.49532695    -0.27700
C541        C  0.90259159  0.04448057  0.50567135    -0.03800
C542        C  0.91172094  0.03882137  0.51332827     0.08400
C543        C  0.91520455  0.02783811  0.50699366     0.02200
H544        H  0.89766660  0.05334243  0.50741208     0.09900
H545        H  0.92208478  0.02082426  0.51006838     0.09000
N546        N  0.87803172  0.04174871  0.46336474    -0.34900
N547        N  0.87725364  0.03284880  0.45451597    -0.27100
C548        C  0.86935843  0.03687415  0.44523813    -0.02300
C549        C  0.86491725  0.04890075  0.44838631     0.06300
C550        C  0.87069321  0.05164740  0.45994044     0.04400
H551        H  0.86686361  0.03131162  0.43695074     0.09500
H552        H  0.86977370  0.06027092  0.46545658     0.08300
N553        N  0.91806845  0.95253611  0.44089591    -0.26000
N554        N  0.92700442  0.95316448  0.44973497    -0.33900
C555        C  0.92513033  0.96360329  0.45683308     0.02300
C556        C  0.91455300  0.96990228  0.45220241     0.08300
C557        C  0.91029609  0.96264480  0.44207892    -0.04800
H558        H  0.93117481  0.96648812  0.46465447     0.09000
H559        H  0.90218087  0.96454703  0.43602805     0.10200
Cu560      Cu  0.94172889  0.94021818  0.45149544     0.44200
Cu561      Cu  0.91696880  0.93783637  0.42783392     0.42000
Cu562      Cu  0.94120226  0.91320456  0.43031401     0.43900
N563        N  0.95607181  0.92675801  0.45077590    -0.33400
N564        N  0.95586901  0.91685539  0.44303669    -0.27700
C565        C  0.96658948  0.91008126  0.44469913    -0.03800
C566        C  0.97386760  0.91600507  0.45393272     0.08400
C567        C  0.96692009  0.92655219  0.45757908     0.02200
H568        H  0.96889595  0.90148199  0.43955179     0.09900
H569        H  0.96953874  0.93357460  0.46462895     0.09000
N570        N  0.92621938  0.91269890  0.41743762    -0.34900
N571        N  0.91759860  0.92179790  0.41642203    -0.27100
C572        C  0.90951084  0.91887441  0.40696282    -0.02300
C573        C  0.91317304  0.90736808  0.40173181     0.06300
C574        C  0.92379421  0.90370719  0.40865655     0.04400
H575        H  0.90145016  0.92466080  0.40422743     0.09500
H576        H  0.92952221  0.89528084  0.40725641     0.08300
C577        C  0.86767909  0.61204235  0.21937897     0.81500
N578        N  0.85657222  0.60717794  0.22386167    -0.76800
C579        C  0.85227543  0.59572393  0.21967522     0.83900
N580        N  0.85905841  0.58931779  0.21070932    -0.76800
C581        C  0.87003009  0.59421560  0.20592376     0.84000
N582        N  0.87432257  0.60553031  0.21041559    -0.78500
N583        N  0.91230766  0.71153872  0.25913687    -0.26000
N584        N  0.92317146  0.70654363  0.25524047    -0.33900
C585        C  0.92065943  0.69567908  0.24893668     0.02300
C586        C  0.90761160  0.69373408  0.24901837     0.08300
C587        C  0.90265355  0.70398788  0.25554987    -0.04800
H588        H  0.92782648  0.68935289  0.24513870     0.09000
H589        H  0.89275783  0.70573678  0.25776255     0.10200
Cu590      Cu  0.94088394  0.71416040  0.25988656     0.44200
Cu591      Cu  0.91079525  0.72800836  0.26971973     0.42000
Cu592      Cu  0.93980662  0.74164243  0.28112069     0.43900
N593        N  0.95694929  0.72318691  0.26722494    -0.33400
N594        N  0.95650637  0.73287666  0.27524358    -0.27700
C595        C  0.96845048  0.73644804  0.27816001    -0.03800
C596        C  0.97681682  0.72873644  0.27157441     0.08400
C597        C  0.96920893  0.72043908  0.26474318     0.02200
H598        H  0.97084385  0.74435576  0.28428979     0.09900
H599        H  0.97234215  0.71301583  0.25834816     0.09000
N600        N  0.92208093  0.74977998  0.28424732    -0.34900
N601        N  0.91139953  0.74477015  0.27993438    -0.27100
C602        C  0.90167028  0.75259855  0.28267068    -0.02300
C603        C  0.90644301  0.76310351  0.28902611     0.06300
C604        C  0.91943292  0.76094654  0.28988356     0.04400
H605        H  0.89187929  0.75082569  0.28004400     0.09500
H606        H  0.92652951  0.76728415  0.29380019     0.08300
C607        C  0.86381418  0.84424975  0.31771348     0.81500
N608        N  0.87032647  0.85064271  0.32685654    -0.76800
C609        C  0.86556775  0.86138950  0.33215271     0.83900
N610        N  0.85405903  0.86573138  0.32819678    -0.76800
C611        C  0.84743450  0.85957333  0.31894979     0.84000
N612        N  0.85233802  0.84877272  0.31373079    -0.78500
C613        C  0.61978879  0.60486034  0.32115365     0.81500
N614        N  0.61444630  0.59943628  0.33162036    -0.76800
C615        C  0.60367259  0.60428984  0.33679553     0.83900
N616        N  0.59839137  0.61479705  0.33149772    -0.76800
C617        C  0.60354424  0.62042728  0.32105765     0.84000
N618        N  0.61423566  0.61530098  0.31583789    -0.78500
C619        C  0.61683705  0.86736826  0.22011481     0.81500
N620        N  0.61086550  0.87308088  0.21018157    -0.76800
C621        C  0.60051661  0.86776897  0.20463370     0.83900
N622        N  0.59610538  0.85647353  0.20906889    -0.76800
C623        C  0.60187367  0.85054679  0.21902922     0.84000
N624        N  0.61225966  0.85605970  0.22449242    -0.78500
N625        N  0.55505003  0.71800136  0.27973509    -0.26000
N626        N  0.54425349  0.71308415  0.28390884    -0.33900
C627        C  0.54669516  0.70181199  0.28945589     0.02300
C628        C  0.55965750  0.69950210  0.28871790     0.08300
C629        C  0.56464358  0.71002422  0.28254997    -0.04800
H630        H  0.53950222  0.69566381  0.29351044     0.09000
H631        H  0.57444546  0.71155626  0.27981713     0.10200
Cu632      Cu  0.52654629  0.72126548  0.28078848     0.44200
Cu633      Cu  0.55626860  0.73497821  0.26982190     0.42000
Cu634      Cu  0.52649820  0.75015417  0.26195908     0.43900
N635        N  0.51011144  0.73000622  0.27415730    -0.33400
N636        N  0.51014450  0.74025573  0.26683569    -0.27700
C637        C  0.49809879  0.74313987  0.26361058    -0.03800
C638        C  0.49010359  0.73436402  0.26928684     0.08400
C639        C  0.49802184  0.72619047  0.27592063     0.02200
H640        H  0.49536774  0.75115791  0.25774429     0.09900
H641        H  0.49523053  0.71798480  0.28148981     0.09000
N642        N  0.54412064  0.75850735  0.25898296    -0.34900
N643        N  0.55503018  0.75277537  0.26148553    -0.27100
C644        C  0.56467042  0.76062412  0.25845589    -0.02300
C645        C  0.55956913  0.77190771  0.25398444     0.06300
C646        C  0.54651971  0.77023533  0.25446019     0.04400
H647        H  0.57463730  0.75838734  0.25971512     0.09500
H648        H  0.53929451  0.77699350  0.25161036     0.08300
N649        N  0.71324968  0.91363263  0.26698295    -0.26000
N650        N  0.70828941  0.92477520  0.26391440    -0.33900
C651        C  0.69666572  0.92298534  0.25887794     0.02300
C652        C  0.69414700  0.91006273  0.25864365     0.08300
C653        C  0.70489834  0.90442848  0.26387883    -0.04800
H654        H  0.69069007  0.93054142  0.25524401     0.09000
H655        H  0.70657917  0.89437305  0.26526973     0.10200
Cu656      Cu  0.71773076  0.94191657  0.26604010     0.44200
Cu657      Cu  0.73147589  0.91159220  0.27461586     0.42000
Cu658      Cu  0.74945406  0.94114218  0.27886593     0.43900
N659        N  0.72836538  0.95810522  0.26953369    -0.33400
N660        N  0.73976864  0.95795852  0.27484923    -0.27700
C661        C  0.74370330  0.97004426  0.27651806    -0.03800
C662        C  0.73440388  0.97809806  0.27178144     0.08400
C663        C  0.72486490  0.97021460  0.26738714     0.02200
H664        H  0.75276106  0.97275160  0.28058908     0.09900
H665        H  0.71592049  0.97306815  0.26315806     0.09000
N666        N  0.75694743  0.92302678  0.28177766    -0.34900
N667        N  0.75040367  0.91235372  0.28059844    -0.27100
C668        C  0.75802108  0.90248399  0.28357784    -0.02300
C669        C  0.77001001  0.90710327  0.28673118     0.06300
C670        C  0.76889617  0.92020478  0.28539133     0.04400
H671        H  0.75491528  0.89268372  0.28366117     0.09500
H672        H  0.77622457  0.92726718  0.28682967     0.08300
N673        N  0.71454532  0.55459740  0.27499431    -0.26000
N674        N  0.70824100  0.54382957  0.27654177    -0.33900
C675        C  0.69686102  0.54632319  0.28178786     0.02300
C676        C  0.69585862  0.55931826  0.28371646     0.08300
C677        C  0.70730110  0.56424566  0.27928037    -0.04800
H678        H  0.68972228  0.53916770  0.28370448     0.09000
H679        H  0.71021704  0.57410666  0.27919825     0.10200
Cu680      Cu  0.71495229  0.52616623  0.27108101     0.44200
Cu681      Cu  0.73251008  0.55565231  0.26661825     0.42000
Cu682      Cu  0.74353884  0.52613768  0.25247378     0.43900
N683        N  0.72305571  0.50979850  0.26379762    -0.33400
N684        N  0.73329156  0.50985781  0.25649892    -0.27700
C685        C  0.73632495  0.49782425  0.25345578    -0.03800
C686        C  0.72764426  0.48982093  0.25924749     0.08400
C687        C  0.71936069  0.49771063  0.26572490     0.02200
H688        H  0.74457816  0.49509914  0.24794488     0.09900
H689        H  0.71139672  0.49488692  0.27161097     0.09000
N690        N  0.75368612  0.54296656  0.25192095    -0.34900
N691        N  0.74986801  0.55371459  0.25719141    -0.27100
C692        C  0.75892148  0.56260611  0.25540436    -0.02300
C693        C  0.76891143  0.55718322  0.24867269     0.06300
C694        C  0.76521109  0.54470475  0.24668100     0.04400
H695        H  0.75818922  0.57233231  0.25865201     0.09500
H696        H  0.77060310  0.53729052  0.24202659     0.08300
C697        C  0.79055995  0.12246498  0.39730359     0.81500
N698        N  0.79871476  0.11506596  0.40413888    -0.76800
C699        C  0.80242032  0.10349103  0.39976633     0.83900
N700        N  0.79801042  0.09933314  0.38835582    -0.76800
C701        C  0.79004265  0.10664797  0.38125539     0.84000
N702        N  0.78629134  0.11815107  0.38584226    -0.78500
C703        C  0.68629268  0.11626679  0.13389207     0.81500
N704        N  0.69045396  0.11216445  0.14548613    -0.76800
C705        C  0.68556182  0.10138830  0.15078401     0.83900
N706        N  0.67639157  0.09485428  0.14444456    -0.76800
C707        C  0.67206059  0.09890911  0.13295670     0.84000
N708        N  0.67712723  0.10957957  0.12767742    -0.78500
C709        C  0.68541784  0.37143705  0.38457314     0.81500
N710        N  0.69000940  0.36018679  0.38905756    -0.76800
C711        C  0.68613292  0.35555440  0.40052681     0.83900
N712        N  0.67744620  0.36222532  0.40738717    -0.76800
C713        C  0.67264407  0.37337765  0.40297778     0.84000
N714        N  0.67668938  0.37793651  0.39156108    -0.78500
C715        C  0.78257122  0.35290929  0.13034155     0.81500
N716        N  0.77842587  0.35706817  0.14184450    -0.76800
C717        C  0.78132178  0.36895954  0.14595267     0.83900
N718        N  0.78865479  0.37664740  0.13853506    -0.76800
C719        C  0.79319243  0.37246372  0.12716602     0.84000
N720        N  0.79002221  0.36061848  0.12310996    -0.78500
N721        N  0.74187568  0.41063667  0.24719745    -0.26000
N722        N  0.74528674  0.42140214  0.24162884    -0.33900
C723        C  0.75106011  0.41875274  0.23053908     0.02300
C724        C  0.75121643  0.40570297  0.22896213     0.08300
C725        C  0.74527543  0.40084115  0.23968812    -0.04800
H726        H  0.75440338  0.42584645  0.22385136     0.09000
H727        H  0.74346443  0.39094021  0.24184184     0.10200
Cu728      Cu  0.74080730  0.43932558  0.24841243     0.44200
Cu729      Cu  0.73238731  0.40981463  0.26453558     0.42000
Cu730      Cu  0.71970945  0.43982554  0.27538402     0.43900
N731        N  0.73305835  0.45585100  0.25576901    -0.33400
N732        N  0.72492128  0.45593135  0.26536252    -0.27700
C733        C  0.72150813  0.46798527  0.26784163    -0.03800
C734        C  0.72787946  0.47586878  0.25945903     0.08400
C735        C  0.73513027  0.46788537  0.25193505     0.02200
H736        H  0.71519544  0.47080681  0.27546787     0.09900
H737        H  0.74151360  0.47060547  0.24431980     0.09000
N738        N  0.71778381  0.42297913  0.28537345    -0.34900
N739        N  0.72266817  0.41203130  0.28161798    -0.27100
C740        C  0.72049115  0.40320556  0.29065924    -0.02300
C741        C  0.71386801  0.40887924  0.30055575     0.06300
C742        C  0.71231420  0.42141690  0.29683659     0.04400
H743        H  0.72353561  0.39339944  0.29006315     0.09500
H744        H  0.70794553  0.42898656  0.30225732     0.08300
N745        N  0.74331493  0.25162948  0.08843721    -0.26000
N746        N  0.74770384  0.25628044  0.07757017    -0.33900
C747        C  0.75367377  0.26735059  0.07991086     0.02300
C748        C  0.75292176  0.26987489  0.09283348     0.08300
C749        C  0.74625658  0.25970926  0.09793736    -0.04800
H750        H  0.75786664  0.27335132  0.07265691     0.09000
H751        H  0.74372719  0.25827495  0.10782670     0.10200
Cu752      Cu  0.74463316  0.24800997  0.05979352     0.44200
Cu753      Cu  0.73352122  0.23449592  0.08990245     0.42000
Cu754      Cu  0.72518496  0.21989866  0.05972732     0.53500
N755        N  0.73893278  0.23883807  0.04314399    -0.33400
N756        N  0.73138019  0.22878224  0.04316285    -0.27700
C757        C  0.72902905  0.22530033  0.03105249    -0.03800
C758        C  0.73550909  0.23347548  0.02300356     0.08400
C759        C  0.74171386  0.24192908  0.03099335     0.02200
H760        H  0.72320047  0.21727386  0.02832405     0.09900
H761        H  0.74768487  0.24983152  0.02818609     0.09000
N762        N  0.72159502  0.21163718  0.07735769    -0.34900
N763        N  0.72473325  0.21683172  0.08838086    -0.27100
C764        C  0.72170404  0.20870832  0.09784569    -0.02300
C765        C  0.71635563  0.19787916  0.09252948     0.06300
C766        C  0.71645793  0.20012541  0.07951468     0.04400
H767        H  0.72329506  0.21057268  0.10785196     0.09500
H768        H  0.71340312  0.19369469  0.07208526     0.08300
N769        N  0.74279311  0.05792961  0.28645852    -0.26000
N770        N  0.74563297  0.04725362  0.29249589    -0.33900
C771        C  0.75134546  0.05009769  0.30359713     0.02300
C772        C  0.75223084  0.06321271  0.30464504     0.08300
C773        C  0.74670951  0.06784931  0.29355570    -0.04800
H774        H  0.75484774  0.04307871  0.31027812     0.09000
H775        H  0.74547639  0.07770987  0.29087883     0.10200
Cu776      Cu  0.74201446  0.02920779  0.28531042     0.44200
Cu777      Cu  0.73377051  0.05848196  0.26878467     0.42000
Cu778      Cu  0.72625960  0.02798529  0.25462769     0.43900
N779        N  0.73742828  0.01234782  0.27609128    -0.33400
N780        N  0.73121797  0.01193677  0.26513439    -0.27700
C781        C  0.72916514  0.99970905  0.26199371    -0.03800
C782        C  0.73454037  0.99207624  0.27128733     0.08400
C783        C  0.73973618  0.00037809  0.28006738     0.02200
H784        H  0.72429271  0.99660366  0.25346756     0.09900
H785        H  0.74457303  0.99791657  0.28883145     0.09000
N786        N  0.72271062  0.04532422  0.24572480    -0.34900
N787        N  0.72521103  0.05646163  0.25099449    -0.27100
C788        C  0.72178100  0.06576566  0.24285614    -0.02300
C789        C  0.71699804  0.06024205  0.23186754     0.06300
C790        C  0.71775516  0.04725490  0.23404936     0.04400
H791        H  0.72301113  0.07581323  0.24467622     0.09500
H792        H  0.71485391  0.03973782  0.22765231     0.08300
N793        N  0.74697505  0.22111723  0.44212465    -0.26000
N794        N  0.75026984  0.21597225  0.45312833    -0.33900
C795        C  0.75627940  0.20492074  0.45094645     0.02300
C796        C  0.75673847  0.20287779  0.43790947     0.08300
C797        C  0.75080196  0.21343165  0.43261132    -0.04800
H798        H  0.75977365  0.19869605  0.45837736     0.09000
H799        H  0.74886182  0.21512986  0.42263070     0.10200
Cu800      Cu  0.74493515  0.22324944  0.47065869     0.44200
Cu801      Cu  0.73652243  0.23783792  0.44097064     0.42000
Cu802      Cu  0.72204388  0.24884706  0.47078410     0.43900
N803        N  0.73612160  0.22988140  0.48700098    -0.33400
N804        N  0.72737230  0.23891372  0.48708638    -0.27700
C805        C  0.72327409  0.24058090  0.49913187    -0.03800
C806        C  0.72983988  0.23223723  0.50695921     0.08400
C807        C  0.73789358  0.22562528  0.49894784     0.02200
H808        H  0.71623623  0.24751484  0.50199668     0.09900
H809        H  0.74453205  0.21821109  0.50158004     0.09000
N810        N  0.72023777  0.25811520  0.45334862    -0.34900
N811        N  0.72580182  0.25433540  0.44269823    -0.27100
C812        C  0.72357954  0.26297826  0.43349882    -0.02300
C813        C  0.71617705  0.27259768  0.43854797     0.06300
C814        C  0.71420292  0.26918728  0.45113611     0.04400
H815        H  0.72716162  0.26233228  0.42386047     0.09500
H816        H  0.70917272  0.27460318  0.45829422     0.08300
C817        C  0.60361803  0.17988266  0.88209647     0.81500
N818        N  0.59697524  0.17143048  0.88926218    -0.76800
C819        C  0.60078709  0.16827135  0.90120566     0.83900
N820        N  0.61165158  0.17357616  0.90584509    -0.76800
C821        C  0.61859268  0.18197434  0.89877997     0.84000
N822        N  0.61436895  0.18522513  0.88693679    -0.78500
C823        C  0.85318591  0.28322176  0.89771394     0.81500
N824        N  0.85667912  0.27967592  0.88577761    -0.76800
C825        C  0.86719735  0.28468178  0.88018190     0.83900
N826        N  0.87441017  0.29322367  0.88665292    -0.76800
C827        C  0.87129921  0.29657418  0.89875357     0.84000
N828        N  0.86063228  0.29161342  0.90414089    -0.78500
N829        N  0.75364389  0.24239555  0.94359879    -0.26000
N830        N  0.75907025  0.24498100  0.95466884    -0.33900
C831        C  0.77078962  0.24965834  0.95258159     0.02300
C832        C  0.77289155  0.25012681  0.93957017     0.08300
C833        C  0.76177528  0.24549755  0.93416383    -0.04800
H834        H  0.77730017  0.25252163  0.96002805     0.09000
H835        H  0.75987246  0.24413108  0.92412897     0.10200
Cu836      Cu  0.75067362  0.24172330  0.97228080     0.44200
Cu837      Cu  0.73569142  0.23407238  0.94195849     0.42000
Cu838      Cu  0.72172093  0.22363166  0.97206318     0.43900
N839        N  0.74123319  0.23636056  0.98881278    -0.33400
N840        N  0.73089416  0.22920123  0.98877391    -0.27700
C841        C  0.72733944  0.22697721  0.00090569    -0.03800
C842        C  0.73575956  0.23316876  0.00894328     0.08400
C843        C  0.74442568  0.23904216  0.00094184     0.02200
H844        H  0.71908752  0.22147473  0.00366100     0.09900
H845        H  0.75254059  0.24472631  0.00372150     0.09000
N846        N  0.71309463  0.22119639  0.95432437    -0.34900
N847        N  0.71803343  0.22509677  0.94340659    -0.27100
C848        C  0.70977228  0.22250822  0.93392911    -0.02300
C849        C  0.69905793  0.21673928  0.93909844     0.06300
C850        C  0.70159136  0.21605657  0.95206605     0.04400
H851        H  0.71134552  0.22495511  0.92404277     0.09500
H852        H  0.69553676  0.21208803  0.95938933     0.08300
C853        C  0.60005208  0.28094545  0.65107709     0.81500
N854        N  0.61160387  0.27719151  0.64668330    -0.76800
C855        C  0.61631067  0.28205034  0.63566103     0.83900
N856        N  0.60953563  0.29101430  0.62926683    -0.76800
C857        C  0.59807656  0.29506004  0.63362152     0.84000
N858        N  0.59334695  0.28987161  0.64450578    -0.78500
C859        C  0.85027591  0.18571977  0.62770521     0.81500
N860        N  0.85568865  0.19150515  0.63795095    -0.76800
C861        C  0.86705605  0.18749355  0.64268971     0.83900
N862        N  0.87296091  0.17748970  0.63703366    -0.76800
C863        C  0.86778116  0.17161502  0.62675989     0.84000
N864        N  0.85643874  0.17579485  0.62215836    -0.78500
N865        N  0.71021468  0.23413643  0.58635162    -0.26000
N866        N  0.70506838  0.23850428  0.57570267    -0.33900
C867        C  0.69391835  0.24408763  0.57849212     0.02300
C868        C  0.69192125  0.24316300  0.59149800     0.08300
C869        C  0.70241671  0.23674122  0.59616946    -0.04800
H870        H  0.68777568  0.24860367  0.57155659     0.09000
H871        H  0.70450991  0.23460432  0.60603800     0.10200
Cu872      Cu  0.71331382  0.23695323  0.55777486     0.44200
Cu873      Cu  0.72805217  0.22580556  0.58734420     0.42000
Cu874      Cu  0.74292744  0.21975047  0.55709140     0.43900
N875        N  0.72295183  0.23270071  0.54103342    -0.33400
N876        N  0.73352025  0.22589091  0.54085099    -0.27700
C877        C  0.73738951  0.22452141  0.52873345    -0.03800
C878        C  0.72893806  0.23088067  0.52089523     0.08400
C879        C  0.71988851  0.23597488  0.52899799     0.02200
H880        H  0.74594594  0.21956807  0.52588937     0.09900
H881        H  0.71171436  0.24165127  0.52636347     0.09000
N882        N  0.75190836  0.21684816  0.57444232    -0.34900
N883        N  0.74649067  0.21907025  0.58557113    -0.27100
C884        C  0.75503814  0.21698694  0.59489479    -0.02300
C885        C  0.76643801  0.21335058  0.58935593     0.06300
C886        C  0.76404811  0.21333395  0.57636796     0.04400
H887        H  0.75319446  0.21845985  0.60492160     0.09500
H888        H  0.77066034  0.21103317  0.56882504     0.08300
N889        N  0.90803612  0.24820163  0.77760123    -0.26000
N890        N  0.91888426  0.25202518  0.78268771    -0.33900
C891        C  0.91668371  0.25645659  0.79446091     0.02300
C892        C  0.90381826  0.25542779  0.79695481     0.08300
C893        C  0.89858921  0.25023104  0.78601600    -0.04800
H894        H  0.92398175  0.25999413  0.80080084     0.09000
H895        H  0.88874794  0.24765332  0.78446850     0.10200
Cu896      Cu  0.93649560  0.24988861  0.77428322     0.44200
Cu897      Cu  0.90690544  0.23943117  0.75992162     0.42000
Cu898      Cu  0.93753743  0.22903658  0.74745005     0.43900
N899        N  0.95327521  0.24321198  0.76661749    -0.33400
N900        N  0.95365624  0.23481380  0.75727827    -0.27700
C901        C  0.96585125  0.23166979  0.75503073    -0.03800
C902        C  0.97346701  0.23858528  0.76324348     0.08400
C903        C  0.96519673  0.24581762  0.77043954     0.02200
H904        H  0.96895053  0.22511698  0.74772838     0.09900
H905        H  0.96763047  0.25235590  0.77800613     0.09000
N906        N  0.92039738  0.22700034  0.73783423    -0.34900
N907        N  0.90924685  0.23066508  0.74235851    -0.27100
C908        C  0.90021261  0.22829921  0.73358036    -0.02300
C909        C  0.90598672  0.22303886  0.72296642     0.06300
C910        C  0.91877949  0.22235435  0.72601599     0.04400
H911        H  0.89024672  0.23056767  0.73471384     0.09500
H912        H  0.92636751  0.21874834  0.72009336     0.08300
N913        N  0.55476219  0.21303215  0.78116515    -0.26000
N914        N  0.54413607  0.21243593  0.78782313    -0.33900
C915        C  0.54668835  0.20790247  0.79951547     0.02300
C916        C  0.55962236  0.20539474  0.80037030     0.08300
C917        C  0.56438461  0.20872499  0.78844129    -0.04800
H918        H  0.53964901  0.20710198  0.80697105     0.09000
H919        H  0.57413421  0.20826389  0.78523475     0.10200
Cu920      Cu  0.52679621  0.21857040  0.78107989     0.44200
Cu921      Cu  0.55571539  0.22094211  0.76296157     0.42000
Cu922      Cu  0.52632792  0.23538897  0.75115854     0.43900
N923        N  0.51058549  0.22617244  0.77315439    -0.33400
N924        N  0.51036037  0.23275919  0.76242086    -0.27700
C925        C  0.49835608  0.23658739  0.76015453    -0.03800
C926        C  0.49074206  0.23200637  0.76987852     0.08400
C927        C  0.49877300  0.22544435  0.77792037     0.02200
H928        H  0.49535653  0.24195682  0.75187861     0.09900
H929        H  0.49624852  0.22051112  0.78661379     0.09000
N930        N  0.54353729  0.23590812  0.74154637    -0.34900
N931        N  0.55417758  0.23055779  0.74563646    -0.27100
C932        C  0.56349423  0.23290942  0.73713558    -0.02300
C933        C  0.55847322  0.24015118  0.72730180     0.06300
C934        C  0.54580622  0.24182694  0.73042687     0.04400
H935        H  0.57328352  0.22993634  0.73825394     0.09500
H936        H  0.53873569  0.24704252  0.72504710     0.08300
C937        C  0.11818613  0.36848316  0.81465402     0.81500
N938        N  0.11186225  0.37437869  0.82424235    -0.76800
C939        C  0.10110944  0.36934441  0.82926014     0.83900
N940        N  0.09668742  0.35813483  0.82468888    -0.76800
C941        C  0.10286768  0.35205635  0.81511222     0.84000
N942        N  0.11353686  0.35732917  0.81002829    -0.78500
C943        C  0.09948255  0.12275098  0.71583079     0.81500
N944        N  0.09382790  0.11671795  0.70590290    -0.76800
C945        C  0.09913778  0.10619592  0.70061456     0.83900
N946        N  0.11028801  0.10172317  0.70545199    -0.76800
C947        C  0.11610145  0.10768689  0.71536347     0.84000
N948        N  0.11061937  0.11817671  0.72047507    -0.78500
C949        C  0.36470315  0.11753707  0.81650738     0.81500
N950        N  0.37136376  0.11049328  0.82506284    -0.76800
C951        C  0.36718309  0.09886230  0.82881201     0.83900
N952        N  0.35612635  0.09436158  0.82389389    -0.76800
C953        C  0.34927673  0.10134761  0.81542557     0.84000
N954        N  0.35361933  0.11295141  0.81169632    -0.78500
C955        C  0.35402883  0.36772954  0.72186019     0.81500
N956        N  0.35787702  0.35565628  0.72436404    -0.76800
C957        C  0.36885535  0.35108123  0.71931092     0.83900
N958        N  0.37576073  0.35867456  0.71146571    -0.76800
C959        C  0.37199423  0.37071322  0.70876829     0.84000
N960        N  0.36113700  0.37521529  0.71407879    -0.78500
N961        N  0.41251772  0.25329774  0.76408534    -0.26000
N962        N  0.42366323  0.25779570  0.76039588    -0.33900
C963        C  0.42194018  0.26872177  0.75402950     0.02300
C964        C  0.40906625  0.27130420  0.75364112     0.08300
C965        C  0.40334922  0.26128744  0.76007229    -0.04800
H966        H  0.42955553  0.27430478  0.74993200     0.09000
H967        H  0.39331436  0.26003562  0.76197263     0.10200
Cu968      Cu  0.44088848  0.24932880  0.76409147     0.44200
Cu969      Cu  0.41046333  0.23661284  0.77452539     0.42000
Cu970      Cu  0.44034748  0.22090769  0.78252730     0.43900
N971        N  0.45711475  0.23961911  0.76903368    -0.33400
N972        N  0.45696592  0.22935103  0.77629173    -0.27700
C973        C  0.46894648  0.22523185  0.77791639    -0.03800
C974        C  0.47694284  0.23322823  0.77119321     0.08400
C975        C  0.46915791  0.24224008  0.76565221     0.02200
H976        H  0.47157900  0.21680555  0.78322745     0.09900
H977        H  0.47199756  0.25008956  0.75961064     0.09000
N978        N  0.42257665  0.21334416  0.78621208    -0.34900
N979        N  0.41170564  0.21909099  0.78363041    -0.27100
C980        C  0.40206735  0.21129059  0.78679328    -0.02300
C981        C  0.40709202  0.19995550  0.79143143     0.06300
C982        C  0.42016432  0.20170647  0.79088821     0.04400
H983        H  0.39215953  0.21372572  0.78556157     0.09500
H984        H  0.42750644  0.19486527  0.79312096     0.08300
N985        N  0.21410384  0.06107946  0.75677976    -0.26000
N986        N  0.20679266  0.05084225  0.75687666    -0.33900
C987        C  0.19501049  0.05413635  0.75315056     0.02300
C988        C  0.19494435  0.06702640  0.75047603     0.08300
C989        C  0.20721993  0.07111843  0.75280501    -0.04800
H990        H  0.18707389  0.04762699  0.75246302     0.09000
H991        H  0.21075938  0.08075824  0.75216480     0.10200
Cu992      Cu  0.21294966  0.03284870  0.76227384     0.44200
Cu993      Cu  0.23256816  0.06132969  0.76359568     0.42000
Cu994      Cu  0.24228813  0.03221578  0.77957192     0.43900
N995        N  0.22143685  0.01611364  0.76848809    -0.33400
N996        N  0.23198095  0.01597117  0.77534818    -0.27700
C997        C  0.23515554  0.00384855  0.77792875    -0.03800
C998        C  0.22627537  0.99597582  0.77226435     0.08400
C999        C  0.21771894  0.00405175  0.76633290     0.02200
H1000       H  0.24356633  0.00097831  0.78313449     0.09900
H1001       H  0.20944146  0.00137318  0.76082971     0.09000
N1002       N  0.25242855  0.04909512  0.78023803    -0.34900
N1003       N  0.24917814  0.05955454  0.77403376    -0.27100
C1004       C  0.25804316  0.06854189  0.77608894    -0.02300
C1005       C  0.26729325  0.06350108  0.78401660     0.06300
C1006       C  0.26340801  0.05115937  0.78644586     0.04400
H1007       H  0.25765296  0.07809082  0.77225461     0.09500
H1008       H  0.26833420  0.04407679  0.79207667     0.08300
N1009       N  0.05192456  0.21819849  0.76226445    -0.26000
N1010       N  0.04130839  0.21374567  0.75725246    -0.33900
C1011       C  0.04359983  0.20233764  0.75204725     0.02300
C1012       C  0.05629739  0.19928854  0.75394342     0.08300
C1013       C  0.06126208  0.20964290  0.76048896    -0.04800
H1014       H  0.03650703  0.19687541  0.74699506     0.09000
H1015       H  0.07091317  0.21095363  0.76378167     0.10200
Cu1016     Cu  0.02402347  0.22301807  0.75797102     0.44200
Cu1017     Cu  0.05325757  0.23604749  0.77050248     0.42000
Cu1018     Cu  0.02376572  0.25405243  0.77235455     0.43900
N1019       N  0.00754211  0.23299627  0.76171331    -0.33400
N1020       N  0.00737303  0.24421371  0.76737355    -0.27700
C1021       C  0.99521153  0.24785715  0.76896789    -0.03800
C1022       C  0.98741664  0.23853305  0.76392549     0.08400
C1023       C  0.99553485  0.22926279  0.75939878     0.02200
H1024       H  0.99228204  0.25672641  0.77327396     0.09900
H1025       H  0.99292682  0.22039249  0.75488876     0.09000
N1026       N  0.04153609  0.26148585  0.77676773    -0.34900
N1027       N  0.05219635  0.25484267  0.77633035    -0.27100
C1028       C  0.06193178  0.26231819  0.77989575    -0.02300
C1029       C  0.05723297  0.27431197  0.78269391     0.06300
C1030       C  0.04423055  0.27339275  0.78057583     0.04400
H1031       H  0.07168709  0.25913117  0.78056492     0.09500
H1032       H  0.03720856  0.28083622  0.78156317     0.08300
N1033       N  0.21803893  0.41367175  0.77510639    -0.26000
N1034       N  0.21255891  0.42473758  0.77743709    -0.33900
C1035       C  0.20087186  0.42262847  0.78216004     0.02300
C1036       C  0.19887857  0.40960998  0.78282166     0.08300
C1037       C  0.21000357  0.40424089  0.77828265    -0.04800
H1038       H  0.19436097  0.43006973  0.78497919     0.09000
H1039       H  0.21204983  0.39423251  0.77709521     0.10200
Cu1040     Cu  0.22094769  0.44230807  0.77391519     0.44200
Cu1041     Cu  0.23608997  0.41180218  0.76765065     0.42000
Cu1042     Cu  0.25165393  0.44170957  0.75929542     0.43900
N1043       N  0.23079827  0.45873072  0.76891834    -0.33400
N1044       N  0.24195445  0.45853431  0.76311818    -0.27700
C1045       C  0.24567883  0.47058638  0.76080745    -0.03800
C1046       C  0.23647977  0.47874978  0.76552412     0.08400
C1047       C  0.22720919  0.47089814  0.77062906     0.02200
H1048       H  0.25454370  0.47321003  0.75627731     0.09900
H1049       H  0.21843813  0.47380856  0.77515560     0.09000
N1050       N  0.25988784  0.42381946  0.75731550    -0.34900
N1051       N  0.25431066  0.41298688  0.76046214    -0.27100
C1052       C  0.26232848  0.40329303  0.75814811    -0.02300
C1053       C  0.27347584  0.40825768  0.75322738     0.06300
C1054       C  0.27158531  0.42128676  0.75285661     0.04400
H1055       H  0.26009207  0.39336946  0.75971705     0.09500
H1056       H  0.27827390  0.42844769  0.74969851     0.08300
C1057       C  0.28170202  0.86986744  0.88680937     0.81500
N1058       N  0.29124577  0.87585003  0.89317342    -0.76800
C1059       C  0.29645222  0.87070152  0.90383306     0.83900
N1060       N  0.29202417  0.85937434  0.90813666    -0.76800
C1061       C  0.28264128  0.85312622  0.90185674     0.84000
N1062       N  0.27753822  0.85837256  0.89114769    -0.78500
C1063       C  0.29288901  0.60721204  0.65308593     0.81500
N1064       N  0.30199965  0.60080915  0.64657794    -0.76800
C1065       C  0.30675032  0.60530297  0.63546636     0.83900
N1066       N  0.30246361  0.61661190  0.63089622    -0.76800
C1067       C  0.29354970  0.62345650  0.63733832     0.84000
N1068       N  0.28874391  0.61860066  0.64841554    -0.78500
C1069       C  0.18624517  0.60246776  0.88352290     0.81500
N1070       N  0.17742259  0.59548592  0.88987116    -0.76800
C1071       C  0.17140588  0.60021162  0.90024363     0.83900
N1072       N  0.17434588  0.61209329  0.90432906    -0.76800
C1073       C  0.18312339  0.61931612  0.89813832     0.84000
N1074       N  0.18902450  0.61444557  0.88764273    -0.78500
N1075       N  0.24668169  0.55837702  0.74934655    -0.26000
N1076       N  0.25038067  0.54755708  0.74412614    -0.33900
C1077       C  0.25584498  0.55008298  0.73281556     0.02300
C1078       C  0.25554321  0.56312441  0.73071078     0.08300
C1079       C  0.24965650  0.56804337  0.74146152    -0.04800
H1080       H  0.25979284  0.54288696  0.72662836     0.09000
H1081       H  0.24740443  0.57789592  0.74334015     0.10200
Cu1082     Cu  0.24721460  0.52963621  0.75208109     0.44200
Cu1083     Cu  0.23754924  0.55958060  0.76686105     0.42000
Cu1084     Cu  0.22687395  0.52937509  0.77960870     0.43900
N1085       N  0.24081317  0.51292567  0.76069157    -0.33400
N1086       N  0.23276639  0.51291064  0.77037223    -0.27700
C1087       C  0.22989646  0.50080874  0.77343529    -0.03800
C1088       C  0.23658933  0.49279381  0.76542689     0.08400
C1089       C  0.24344624  0.50079710  0.75748309     0.02200
H1090       H  0.22363389  0.49804834  0.78113599     0.09900
H1091       H  0.24974652  0.49801713  0.74983047     0.09000
N1092       N  0.22422126  0.54670029  0.78877588    -0.34900
N1093       N  0.22836786  0.55770348  0.78429419    -0.27100
C1094       C  0.22576192  0.56689769  0.79281747    -0.02300
C1095       C  0.21961322  0.56143890  0.80315643     0.06300
C1096       C  0.21880534  0.54861698  0.80022129     0.04400
H1097       H  0.22810855  0.57683371  0.79152605     0.09500
H1098       H  0.21488938  0.54114109  0.80612826     0.08300
N1099       N  0.24408309  0.75186746  0.94472966    -0.26000
N1100       N  0.24794162  0.75676603  0.95566935    -0.33900
C1101       C  0.25408426  0.76775441  0.95334726     0.02300
C1102       C  0.25399908  0.76996346  0.94033651     0.08300
C1103       C  0.24755954  0.75969314  0.93518243    -0.04800
H1104       H  0.25780599  0.77397745  0.96065205     0.09000
H1105       H  0.24538733  0.75810162  0.92523652     0.10200
Cu1106     Cu  0.24346906  0.74916623  0.97340434     0.44200
Cu1107     Cu  0.23355318  0.73517493  0.94325311     0.42000
Cu1108     Cu  0.22020731  0.72387515  0.97297899     0.43900
N1109       N  0.23588094  0.74111525  0.98982611    -0.33400
N1110       N  0.22710516  0.73210171  0.98969937    -0.27700
C1111       C  0.22402177  0.72913551  0.00180669    -0.03800
C1112       C  0.23122540  0.73661890  0.00992831     0.08400
C1113       C  0.23863756  0.74408784  0.00199034     0.02200
H1114       H  0.21716466  0.72194251  0.00448901     0.09900
H1115       H  0.24551888  0.75118900  0.00483107     0.09000
N1116       N  0.21663208  0.71543025  0.95535519    -0.34900
N1117       N  0.22193076  0.71920259  0.94458703    -0.27100
C1118       C  0.21873995  0.71101049  0.93526930    -0.02300
C1119       C  0.21094685  0.70156058  0.94033060     0.06300
C1120       C  0.20979538  0.70484850  0.95312666     0.04400
H1121       H  0.22231516  0.71168087  0.92564090     0.09500
H1122       H  0.20456078  0.69987741  0.96045180     0.08300
C1123       C  0.18568188  0.85538675  0.63711565     0.81500
N1124       N  0.17654817  0.86175289  0.63051741    -0.76800
C1125       C  0.17083773  0.87223809  0.63545343     0.83900
N1126       N  0.17430135  0.87632510  0.64723164    -0.76800
C1127       C  0.18358978  0.87022087  0.65386091     0.84000
N1128       N  0.18924110  0.85979544  0.64874319    -0.78500
N1129       N  0.22035979  0.91671056  0.75396078    -0.26000
N1130       N  0.21701597  0.92757954  0.74854145    -0.33900
C1131       C  0.21257203  0.92520551  0.73677375     0.02300
C1132       C  0.21303038  0.91222550  0.73471054     0.08300
C1133       C  0.21797362  0.90712759  0.74582442    -0.04800
H1134       H  0.20919157  0.93241517  0.73022986     0.09000
H1135       H  0.21998552  0.89721833  0.74775000     0.10200
Cu1136     Cu  0.21881927  0.94530676  0.75702349     0.44200
Cu1137     Cu  0.22862336  0.91532629  0.77187691     0.42000
Cu1138     Cu  0.23597496  0.94551969  0.78657074     0.43900
N1139       N  0.22334648  0.96189549  0.76670084    -0.33400
N1140       N  0.23024280  0.96194065  0.77723289    -0.27700
C1141       C  0.23234058  0.97403800  0.78079216    -0.03800
C1142       C  0.22630943  0.98198383  0.77219453     0.08400
C1143       C  0.22066102  0.97398264  0.76339590     0.02200
H1144       H  0.23773574  0.97682751  0.78911009     0.09900
H1145       H  0.21528704  0.97673646  0.75504257     0.09000
N1146       N  0.23956209  0.92807261  0.79508492    -0.34900
N1147       N  0.23702735  0.91700725  0.78969345    -0.27100
C1148       C  0.24045083  0.90760430  0.79770758    -0.02300
C1149       C  0.24526034  0.91302349  0.80872787     0.06300
C1150       C  0.24453356  0.92601761  0.80671018     0.04400
H1151       H  0.23926179  0.89757505  0.79575688     0.09500
H1152       H  0.24749115  0.93346002  0.81316902     0.08300
N1153       N  0.25012196  0.72265091  0.59176841    -0.26000
N1154       N  0.25339295  0.71763255  0.58069401    -0.33900
C1155       C  0.25868005  0.70614947  0.58278769     0.02300
C1156       C  0.25876754  0.70371775  0.59580823     0.08300
C1157       C  0.25324320  0.71446122  0.60116117    -0.04800
H1158       H  0.26231489  0.70008423  0.57532162     0.09000
H1159       H  0.25139486  0.71615117  0.61114964     0.10200
Cu1160     Cu  0.25013677  0.72628193  0.56301645     0.44200
Cu1161     Cu  0.24142878  0.74041881  0.59365899     0.42000
Cu1162     Cu  0.23108335  0.75456911  0.56380130     0.43900
N1163       N  0.24394715  0.73572409  0.54658357    -0.33400
N1164       N  0.23636201  0.74574559  0.54696316    -0.27700
C1165       C  0.23337680  0.74926267  0.53498735    -0.03800
C1166       C  0.23951577  0.74118206  0.52662718     0.08400
C1167       C  0.24617458  0.73273842  0.53430007     0.02200
H1168       H  0.22735732  0.75725163  0.53255324     0.09900
H1169       H  0.25199365  0.72484888  0.53118600     0.09000
N1170       N  0.22868780  0.76309585  0.58143835    -0.34900
N1171       N  0.23259484  0.75816904  0.59235126    -0.27100
C1172       C  0.22996461  0.76643964  0.60179184    -0.02300
C1173       C  0.22411737  0.77711359  0.59656642     0.06300
C1174       C  0.22345929  0.77453797  0.58362772     0.04400
H1175       H  0.23237161  0.76485492  0.61168433     0.09500
H1176       H  0.21936199  0.78045557  0.57626017     0.08300
C1177       C  0.34992268  0.78515778  0.13481300     0.81500
N1178       N  0.35637837  0.79469384  0.12889662    -0.76800
C1179       C  0.36697459  0.79984771  0.13414772     0.83900
N1180       N  0.37119916  0.79529568  0.14545867    -0.76800
C1181       C  0.36516610  0.78560340  0.15150765     0.84000
N1182       N  0.35443191  0.78061019  0.14615472    -0.78500
C1183       C  0.09840958  0.68937055  0.14828628     0.81500
N1184       N  0.09098575  0.68105207  0.14171795    -0.76800
C1185       C  0.09525509  0.67550405  0.13085844     0.83900
N1186       N  0.10707946  0.67844616  0.12656619    -0.76800
C1187       C  0.11470320  0.68670548  0.13296201     0.84000
N1188       N  0.11029023  0.69208258  0.14389871    -0.78500
N1189       N  0.21706415  0.72232963  0.08949997    -0.26000
N1190       N  0.21171566  0.71952151  0.07844888    -0.33900
C1191       C  0.20046398  0.71387291  0.08058704     0.02300
C1192       C  0.19849109  0.71311358  0.09360974     0.08300
C1193       C  0.20929389  0.71848282  0.09897735    -0.04800
H1194       H  0.19402181  0.71087850  0.07313516     0.09000
H1195       H  0.21106265  0.72012162  0.10899529     0.10200
Cu1196     Cu  0.21889599  0.72461320  0.06073653     0.44200
Cu1197     Cu  0.23405831  0.73244178  0.09101242     0.42000
Cu1198     Cu  0.24578288  0.74536243  0.06083346     0.43900
N1199       N  0.22676689  0.73193734  0.04413502    -0.33400
N1200       N  0.23651656  0.73987134  0.04417883    -0.27700
C1201       C  0.23947557  0.74289895  0.03206398    -0.03800
C1202       C  0.23122858  0.73650238  0.02400575     0.08400
C1203       C  0.22328784  0.72965252  0.03200101     0.02200
H1204       H  0.24724233  0.74907366  0.02932552     0.09900
H1205       H  0.21561385  0.72338880  0.02921855     0.09000
N1206       N  0.25476354  0.74794105  0.07834437    -0.34900
N1207       N  0.25061464  0.74323513  0.08927886    -0.27100
C1208       C  0.25903186  0.74612074  0.09852239    -0.02300
C1209       C  0.26902596  0.75288400  0.09315549     0.06300
C1210       C  0.26592263  0.75387305  0.08034917     0.04400
H1211       H  0.25817054  0.74307495  0.10833380     0.09500
H1212       H  0.27144561  0.75843345  0.07294603     0.08300
C1213       C  0.35101253  0.68514932  0.40200136     0.81500
N1214       N  0.35641018  0.69053194  0.39154692    -0.76800
C1215       C  0.36797558  0.68658684  0.38738742     0.83900
N1216       N  0.37416142  0.67721807  0.39380683    -0.76800
C1217       C  0.36878749  0.67152908  0.40412846     0.84000
N1218       N  0.35717571  0.67556819  0.40814248    -0.78500
C1219       C  0.10082803  0.78350580  0.38575246     0.81500
N1220       N  0.09387305  0.79209506  0.39250296    -0.76800
C1221       C  0.09771787  0.79602249  0.40421788     0.83900
N1222       N  0.10869253  0.79128768  0.40908682    -0.76800
C1223       C  0.11586425  0.78277857  0.40255846     0.84000
N1224       N  0.11182978  0.77890434  0.39086687    -0.78500
N1225       N  0.21680056  0.74510499  0.44780793    -0.26000
N1226       N  0.21219618  0.74921646  0.45878777    -0.33900
C1227       C  0.20052946  0.75409674  0.45676349     0.02300
C1228       C  0.19765080  0.75308675  0.44390454     0.08300
C1229       C  0.20823441  0.74737017  0.43853248    -0.04800
H1230       H  0.19459399  0.75812961  0.46413739     0.09000
H1231       H  0.20950294  0.74473803  0.42865473     0.10200
Cu1232     Cu  0.22170782  0.74784841  0.47625470     0.44200
Cu1233     Cu  0.23435135  0.73624315  0.44584770     0.42000
Cu1234     Cu  0.25210683  0.73277583  0.47540461     0.43900
N1235       N  0.23246607  0.74422768  0.49263825    -0.33400
N1236       N  0.24351617  0.73824929  0.49224551    -0.27700
C1237       C  0.24773131  0.73631643  0.50420191    -0.03800
C1238       C  0.23899123  0.74145884  0.51257177     0.08400
C1239       C  0.22945848  0.74646843  0.50491784     0.02200
H1240       H  0.25649466  0.73148137  0.50661238     0.09900
H1241       H  0.22077564  0.75100513  0.50805918     0.09000
N1242       N  0.25890181  0.72745932  0.45771498    -0.34900
N1243       N  0.25246442  0.72843407  0.44694155    -0.27100
C1244       C  0.25967682  0.72390600  0.43737083    -0.02300
C1245       C  0.27122955  0.71991049  0.44238378     0.06300
C1246       C  0.27035285  0.72238456  0.45530610     0.04400
H1247       H  0.25664575  0.72346059  0.42753402     0.09500
H1248       H  0.27756658  0.72082281  0.46248798     0.08300
N1249       N  0.05568021  0.74450943  0.28540223    -0.26000
N1250       N  0.04484573  0.74658706  0.29143174    -0.33900
C1251       C  0.04739814  0.75090956  0.30319635     0.02300
C1252       C  0.06048672  0.75153095  0.30473979     0.08300
C1253       C  0.06541583  0.74745159  0.29319355    -0.04800
H1254       H  0.04019368  0.75332060  0.31013070     0.09000
H1255       H  0.07533345  0.74623578  0.29075551     0.10200
Cu1256     Cu  0.02702060  0.74238083  0.28401076     0.44200
Cu1257     Cu  0.05676156  0.73681067  0.26725071     0.42000
Cu1258     Cu  0.02732908  0.72393893  0.25495739     0.43900
N1259       N  0.01069775  0.73510723  0.27557415    -0.33400
N1260       N  0.01089531  0.72794773  0.26522886    -0.27700
C1261       C  0.99892893  0.72440641  0.26238224    -0.03800
C1262       C  0.99080017  0.72967963  0.27128318     0.08400
C1263       C  0.99857650  0.73642464  0.27950012     0.02200
H1264       H  0.99631981  0.71867207  0.25424289     0.09900
H1265       H  0.99565935  0.74186053  0.28773955     0.09000
N1266       N  0.04467499  0.72254657  0.24551190    -0.34900
N1267       N  0.05536143  0.72752428  0.24988505    -0.27100
C1268       C  0.06471909  0.72545169  0.24140008    -0.02300
C1269       C  0.05972653  0.71880187  0.23116633     0.06300
C1270       C  0.04697680  0.71712004  0.23414097     0.04400
H1271       H  0.07446936  0.72848458  0.24267083     0.09500
H1272       H  0.03979992  0.71258706  0.22831954     0.08300
N1273       N  0.41117697  0.72664301  0.28662766    -0.26000
N1274       N  0.42197734  0.72171068  0.29080518    -0.33900
C1275       C  0.41992219  0.71590167  0.30203707     0.02300
C1276       C  0.40722989  0.71728601  0.30521098     0.08300
C1277       C  0.40196861  0.72418323  0.29522285    -0.04800
H1278       H  0.42725604  0.71139607  0.30769953     0.09000
H1279       H  0.39216591  0.72716204  0.29425166     0.10200
Cu1280     Cu  0.43936010  0.72401119  0.28180575     0.44200
Cu1281     Cu  0.40964657  0.73637301  0.26929891     0.42000
Cu1282     Cu  0.43979876  0.74362046  0.25374710     0.43900
N1283       N  0.45597332  0.72987680  0.27297258    -0.33400
N1284       N  0.45616769  0.73761637  0.26303716    -0.27700
C1285       C  0.46832976  0.74037996  0.26014824    -0.03800
C1286       C  0.47613355  0.73396108  0.26861309     0.08400
C1287       C  0.46799127  0.72736864  0.27658131     0.02200
H1288       H  0.47125875  0.74654978  0.25242857     0.09900
H1289       H  0.47058107  0.72146115  0.28462410     0.09000
N1290       N  0.42214777  0.74665178  0.24539330    -0.34900
N1291       N  0.41115900  0.74425298  0.25104963    -0.27100
C1292       C  0.40165202  0.74711329  0.24291364    -0.02300
C1293       C  0.40690971  0.75138857  0.23156059     0.06300
C1294       C  0.41992738  0.75094700  0.23351469     0.04400
H1295       H  0.39165158  0.74589288  0.24500951     0.09500
H1296       H  0.42727787  0.75364945  0.22682610     0.08300
C1297       C  0.09539897  0.76245199  0.35668705     0.13900
C1298       C  0.08602301  0.76928713  0.35011161     0.00900
C1299       C  0.08188133  0.78099982  0.35490620     0.15900
C1300       C  0.08691671  0.78578693  0.36626709     0.25300
C1301       C  0.09611329  0.77881880  0.37319240    -0.41100
C1302       C  0.10040068  0.76713247  0.36813031     0.32300
C1303       C  0.08006179  0.76398223  0.33854841     0.00900
F1304       F  0.07282446  0.78774761  0.34860904    -0.13400
F1305       F  0.10910361  0.75995559  0.37442331    -0.13900
C1306       C  0.06845092  0.75750529  0.33949362     0.15900
C1307       C  0.06228621  0.75313748  0.32854316     0.25300
C1308       C  0.06754868  0.75535552  0.31638571    -0.41000
C1309       C  0.07943861  0.76151959  0.31552437     0.32200
C1310       C  0.08563903  0.76577950  0.32654371     0.13900
F1311       F  0.06303917  0.75549449  0.35106777    -0.13400
F1312       F  0.08484419  0.76390351  0.30402551    -0.13900
F1313       F  0.05126474  0.74655195  0.32990254    -0.16200
F1314       F  0.09692994  0.77196031  0.32549103    -0.14700
F1315       F  0.09945885  0.75105958  0.35217989    -0.14700
F1316       F  0.08277749  0.79728459  0.37040257    -0.16100
C1317       C  0.14436882  0.77920171  0.42474157     0.13900
C1318       C  0.15086244  0.76889535  0.41936675     0.00900
C1319       C  0.14587894  0.76304112  0.40843852     0.15900
C1320       C  0.13451279  0.76743628  0.40296115     0.25300
C1321       C  0.12796066  0.77790364  0.40826878    -0.41100
C1322       C  0.13311452  0.78370162  0.41927742     0.32300
C1323       C  0.16280193  0.76430807  0.42531542     0.00900
F1324       F  0.15190742  0.75289290  0.40321687    -0.13400
F1325       F  0.12742479  0.79388755  0.42478503    -0.13900
C1326       C  0.16255937  0.75886374  0.43753758     0.15900
C1327       C  0.17386700  0.75517401  0.44353594     0.25300
C1328       C  0.18566655  0.75687182  0.43741987    -0.41000
C1329       C  0.18587596  0.76224192  0.42510525     0.32200
C1330       C  0.17453018  0.76594726  0.41912408     0.13900
F1331       F  0.15131605  0.75707737  0.44364672    -0.13400
F1332       F  0.19708527  0.76438003  0.41905301    -0.13900
F1333       F  0.17322427  0.74966708  0.45522404    -0.16200
F1334       F  0.17501090  0.77154103  0.40746276    -0.14700
F1335       F  0.14906918  0.78507425  0.43525133    -0.14700
F1336       F  0.12988522  0.76126893  0.39260300    -0.16100
C1337       C  0.30108977  0.70081225  0.43583393     0.13900
C1338       C  0.30390006  0.70420898  0.42318142     0.00900
C1339       C  0.29569631  0.71263082  0.41673718     0.15900
C1340       C  0.28506157  0.71773984  0.42292300     0.25300
C1341       C  0.28224823  0.71429177  0.43558703    -0.41100
C1342       C  0.29029864  0.70561475  0.44188417     0.32300
C1343       C  0.31557525  0.69921134  0.41695857     0.00900
F1344       F  0.29795635  0.71591838  0.40442746    -0.13400
F1345       F  0.28769099  0.70159119  0.45389611    -0.13900
C1346       C  0.31832604  0.68610615  0.41722606     0.15900
C1347       C  0.32985490  0.68152842  0.41242498     0.25300
C1348       C  0.33868697  0.68990654  0.40684886    -0.41000
C1349       C  0.33573545  0.70294397  0.40615134     0.32200
C1350       C  0.32438346  0.70756944  0.41130658     0.13900
F1351       F  0.30981271  0.67769956  0.42211781    -0.13400
F1352       F  0.34411223  0.71133776  0.40101433    -0.13900
F1353       F  0.33228246  0.66885954  0.41307244    -0.16200
F1354       F  0.32227361  0.72030843  0.41124915    -0.14700
F1355       F  0.30899571  0.69306519  0.44251850    -0.14700
F1356       F  0.27780060  0.72638169  0.41662924    -0.16100
C1357       C  0.37101908  0.69871957  0.35349519     0.13900
C1358       C  0.38419523  0.70072054  0.35251623     0.00900
C1359       C  0.39194883  0.69852019  0.36320659     0.15900
C1360       C  0.38664795  0.69411397  0.37462278     0.25300
C1361       C  0.37348412  0.69189093  0.37555335    -0.41100
C1362       C  0.36569210  0.69438551  0.36492734     0.32300
C1363       C  0.38988532  0.70488677  0.34028508     0.00900
F1364       F  0.40465447  0.70075731  0.36260317    -0.13400
F1365       F  0.35298471  0.69212269  0.36543060    -0.13900
C1366       C  0.38680249  0.71679660  0.33504344     0.15900
C1367       C  0.39227005  0.72075754  0.32352960     0.25300
C1368       C  0.40096690  0.71288348  0.31708829    -0.41000
C1369       C  0.40397116  0.70091333  0.32232878     0.32200
C1370       C  0.39844678  0.69694519  0.33380268     0.13900
F1371       F  0.37875129  0.72473323  0.34127498    -0.13400
F1372       F  0.41205102  0.69292289  0.31620395    -0.13900
F1373       F  0.38945796  0.73251132  0.31896532    -0.16200
F1374       F  0.40130728  0.68525207  0.33851580    -0.14700
F1375       F  0.36336549  0.70058140  0.34323742    -0.14700
F1376       F  0.39435183  0.69223418  0.38484330    -0.16100
C1377       C  0.17583161  0.69828419  0.11774723     0.13900
C1378       C  0.16396656  0.70064438  0.11199699     0.00900
C1379       C  0.16356230  0.70732850  0.10040760     0.15900
C1380       C  0.17475618  0.71139940  0.09453755     0.25300
C1381       C  0.18667745  0.70891579  0.10013130    -0.41100
C1382       C  0.18710506  0.70243161  0.11188552     0.32300
C1383       C  0.15190572  0.69624201  0.11790926     0.00900
F1384       F  0.15223488  0.71014783  0.09485467    -0.13400
F1385       F  0.19842831  0.69976385  0.11750874    -0.13900
C1386       C  0.14827189  0.70044240  0.13006595     0.15900
C1387       C  0.13630244  0.69727799  0.13504536     0.25300
C1388       C  0.12766554  0.68979986  0.12794112    -0.41000
C1389       C  0.13157200  0.68536276  0.11584439     0.32200
C1390       C  0.14353126  0.68850812  0.11096250     0.13900
F1391       F  0.15614158  0.70802110  0.13695136    -0.13400
F1392       F  0.12378995  0.67815665  0.10848604    -0.13900
F1393       F  0.13319707  0.70171152  0.14677390    -0.16200
F1394       F  0.14691132  0.68406252  0.09930135    -0.14700
F1395       F  0.17651566  0.69169486  0.12886410    -0.14700
F1396       F  0.17384598  0.71816508  0.08354955    -0.16100
C1397       C  0.08182623  0.71882912  0.20246800     0.13900
C1398       C  0.07836488  0.70744980  0.19637421     0.00900
C1399       C  0.06917033  0.69957481  0.20209213     0.15900
C1400       C  0.06320587  0.70320288  0.21342813     0.25300
C1401       C  0.06642612  0.71473299  0.21940211    -0.41100
C1402       C  0.07594009  0.72242578  0.21389372     0.32300
C1403       C  0.08382556  0.70393315  0.18380023     0.00900
F1404       F  0.06599314  0.68828917  0.19668222    -0.13400
F1405       F  0.07914697  0.73372944  0.21922975    -0.13900
C1406       C  0.09699916  0.70223583  0.18216931     0.15900
C1407       C  0.10185797  0.69790890  0.17049682     0.25300
C1408       C  0.09359390  0.69509938  0.16028988    -0.41000
C1409       C  0.08047949  0.69734751  0.16182604     0.32200
C1410       C  0.07568111  0.70177337  0.17341111     0.13900
F1411       F  0.10510990  0.70425923  0.19203090    -0.13400
F1412       F  0.07224739  0.69534480  0.15206176    -0.13900
F1413       F  0.11456921  0.69590911  0.16941127    -0.16200
F1414       F  0.06299552  0.70394327  0.17450971    -0.14700
F1415       F  0.09054975  0.72671036  0.19710598    -0.14700
F1416       F  0.05442645  0.69529744  0.21866006    -0.16100
C1417       C  0.32168968  0.78099629  0.11224146     0.13900
C1418       C  0.31543568  0.77042749  0.11745638     0.00900
C1419       C  0.32058038  0.76453290  0.12831879     0.15900
C1420       C  0.33179480  0.76916565  0.13391985     0.25300
C1421       C  0.33806569  0.77992919  0.12882705    -0.41100
C1422       C  0.33280980  0.78572148  0.11782041     0.32300
C1423       C  0.30358921  0.76558756  0.11143879     0.00900
F1424       F  0.31485278  0.75410861  0.13337093    -0.13400
F1425       F  0.33828403  0.79608997  0.11238784    -0.13900
C1426       C  0.30381007  0.76098995  0.09888233     0.15900
C1427       C  0.29260765  0.75686701  0.09297134     0.25300
C1428       C  0.28090154  0.75727077  0.09949425    -0.41000
C1429       C  0.28070612  0.76183245  0.11211100     0.32200
C1430       C  0.29195060  0.76595249  0.11801639     0.13900
F1431       F  0.31495343  0.76034404  0.09237982    -0.13400
F1432       F  0.26957282  0.76272934  0.11859362    -0.13900
F1433       F  0.29331695  0.75213657  0.08096964    -0.16200
F1434       F  0.29142542  0.77066031  0.13004115    -0.14700
F1435       F  0.31687143  0.78692593  0.10179285    -0.14700
F1436       F  0.33652943  0.76296397  0.14423283    -0.16100
C1437       C  0.39864928  0.75690517  0.19672311     0.13900
C1438       C  0.38785010  0.76474713  0.19765893     0.00900
C1439       C  0.38316496  0.76787715  0.20979390     0.15900
C1440       C  0.38921323  0.76333009  0.22080236     0.25300
C1441       C  0.40015527  0.75567677  0.21988819    -0.41100
C1442       C  0.40477537  0.75245127  0.20772201     0.32300
C1443       C  0.38185941  0.77011343  0.18599191     0.00900
F1444       F  0.37301036  0.77575729  0.21098771    -0.13400
F1445       F  0.41509425  0.74479186  0.20645726    -0.13900
C1446       C  0.36911355  0.76746909  0.18290576     0.15900
C1447       C  0.36360974  0.77248567  0.17177859     0.25300
C1448       C  0.37076447  0.78029736  0.16350032    -0.41000
C1449       C  0.38351891  0.78306055  0.16682864     0.32200
C1450       C  0.38894806  0.77802004  0.17789796     0.13900
F1451       F  0.36203873  0.75985916  0.19059524    -0.13400
F1452       F  0.39093565  0.79053647  0.15932775    -0.13900
F1453       F  0.35123296  0.76981379  0.16925448    -0.16200
F1454       F  0.40117341  0.78102147  0.18081343    -0.14700
F1455       F  0.40323251  0.75351858  0.18511884    -0.14700
F1456       F  0.38470404  0.76690737  0.23236818    -0.16100
C1457       C  0.19824726  0.88771054  0.71283808     0.13900
C1458       C  0.20136866  0.89262036  0.70078569     0.00900
C1459       C  0.20856084  0.90384519  0.69992721     0.15900
C1460       C  0.21236688  0.91022199  0.71096902     0.25300
C1461       C  0.20921100  0.90535152  0.72305445    -0.41100
C1462       C  0.20222511  0.89397062  0.72389876     0.32300
C1463       C  0.19679498  0.88629101  0.68908284     0.00900
F1464       F  0.21165693  0.90877178  0.68836845    -0.13400
F1465       F  0.19884755  0.88915752  0.73542188    -0.13900
C1466       C  0.18372182  0.88585527  0.68636034     0.15900
C1467       C  0.17939489  0.88053469  0.67494526     0.25300
C1468       C  0.18807883  0.87537623  0.66616262    -0.41000
C1469       C  0.20115291  0.87551437  0.66908359     0.32200
C1470       C  0.20547482  0.88103821  0.68039985     0.13900
F1471       F  0.17517549  0.89088205  0.69463732    -0.13400
F1472       F  0.20980412  0.87073978  0.66076789    -0.13900
F1473       F  0.16670477  0.88030011  0.67254590    -0.16200
F1474       F  0.21815058  0.88131288  0.68287640    -0.14700
F1475       F  0.19132887  0.87685347  0.71387045    -0.14700
F1476       F  0.21931382  0.92105180  0.70984147    -0.16100
C1477       C  0.21035424  0.79915373  0.62188572     0.13900
C1478       C  0.20936157  0.81065484  0.61514781     0.00900
C1479       C  0.21375083  0.81126644  0.60254901     0.15900
C1480       C  0.21884334  0.80049504  0.59665273     0.25300
C1481       C  0.21946895  0.78876122  0.60318709    -0.41100
C1482       C  0.21528317  0.78827714  0.61595633     0.32300
C1483       C  0.20327222  0.82191755  0.62100628     0.00900
F1484       F  0.21313020  0.82237207  0.59594937    -0.13400
F1485       F  0.21541664  0.77718667  0.62258089    -0.13900
C1486       C  0.20898617  0.82819917  0.63130632     0.15900
C1487       C  0.20332814  0.83905631  0.63655355     0.25300
C1488       C  0.19174789  0.84381048  0.63162104    -0.41000
C1489       C  0.18602288  0.83733548  0.62132928     0.32200
C1490       C  0.19175217  0.82654415  0.61609591     0.13900
F1491       F  0.22021847  0.82397536  0.63609974    -0.13400
F1492       F  0.17475338  0.84127036  0.61638019    -0.13900
F1493       F  0.20938514  0.84502079  0.64628104    -0.16200
F1494       F  0.18594431  0.82046842  0.60628061    -0.14700
F1495       F  0.20610369  0.79834677  0.63407467    -0.14700
F1496       F  0.22333855  0.80168521  0.58459385    -0.16100
C1497       C  0.19947874  0.57814746  0.86040410     0.13900
C1498       C  0.20216356  0.58564562  0.84963754     0.00900
C1499       C  0.20034459  0.59889322  0.85035340     0.15900
C1500       C  0.19564418  0.60448947  0.86152497     0.25300
C1501       C  0.19249856  0.59691139  0.87213282    -0.41100
C1502       C  0.19465134  0.58369216  0.87149300     0.32300
C1503       C  0.20660001  0.57958215  0.83763212     0.00900
F1504       F  0.20263654  0.60636919  0.84004798    -0.13400
F1505       F  0.19216660  0.57608733  0.88166652    -0.13900
C1506       C  0.19945754  0.56978278  0.83196519     0.15900
C1507       C  0.20369589  0.56390111  0.82079245     0.25300
C1508       C  0.21508955  0.56780308  0.81493195    -0.41000
C1509       C  0.22216142  0.57771203  0.82051811     0.32200
C1510       C  0.21800260  0.58347056  0.83180449     0.13900
F1511       F  0.18821531  0.56605081  0.83712909    -0.13400
F1512       F  0.23335310  0.58153508  0.81532789    -0.13900
F1513       F  0.19643478  0.55462247  0.81551188    -0.16200
F1514       F  0.22531090  0.59261956  0.83724501    -0.14700
F1515       F  0.20158380  0.56540547  0.86020506    -0.14700
F1516       F  0.19359640  0.61723335  0.86172262    -0.16100
C1517       C  0.20189627  0.64933761  0.90619980     0.13900
C1518       C  0.19365296  0.65551661  0.91472885     0.00900
C1519       C  0.18172194  0.65007370  0.91726975     0.15900
C1520       C  0.17818106  0.63855018  0.91161365     0.25300
C1521       C  0.18655570  0.63210040  0.90330449    -0.41100
C1522       C  0.19840000  0.63777724  0.90052791     0.32300
C1523       C  0.19762456  0.66744231  0.92124136     0.00900
F1524       F  0.17343255  0.65597555  0.92522465    -0.13400
F1525       F  0.20684948  0.63195115  0.89269815    -0.13900
C1526       C  0.20073132  0.67836897  0.91419043     0.15900
C1527       C  0.20472449  0.68951278  0.92034643     0.25300
C1528       C  0.20593035  0.68993443  0.93375925    -0.41000
C1529       C  0.20261391  0.67892923  0.94077233     0.32200
C1530       C  0.19845794  0.66789044  0.93458452     0.13900
F1531       F  0.19971796  0.67830229  0.90129333    -0.13400
F1532       F  0.20380010  0.67853906  0.95362891    -0.13900
F1533       F  0.20715798  0.69992120  0.91309393    -0.16200
F1534       F  0.19562854  0.65744286  0.94166247    -0.14700
F1535       F  0.21356907  0.65427688  0.90371764    -0.14700
F1536       F  0.16646654  0.63378629  0.91425630    -0.16100
C1537       C  0.27268903  0.60203455  0.68299229     0.13900
C1538       C  0.27618306  0.58961041  0.68659749     0.00900
C1539       C  0.28536961  0.58320232  0.67931726     0.15900
C1540       C  0.29063269  0.58883786  0.66847785     0.25300
C1541       C  0.28720334  0.60132742  0.66477641    -0.41100
C1542       C  0.27823862  0.60788823  0.67232218     0.32300
C1543       C  0.27026677  0.58318247  0.69781456     0.00900
F1544       F  0.28941738  0.57142238  0.68277320    -0.13400
F1545       F  0.27473664  0.61996963  0.66942317    -0.13900
C1546       C  0.26526291  0.57081881  0.69664480     0.15900
C1547       C  0.26048283  0.56435927  0.70727476     0.25300
C1548       C  0.26033259  0.57017995  0.71935401    -0.41000
C1549       C  0.26493930  0.58273122  0.72044507     0.32200
C1550       C  0.26995617  0.58910198  0.70982677     0.13900
F1551       F  0.26487335  0.56497898  0.68512080    -0.13400
F1552       F  0.26510638  0.58871775  0.73188547    -0.13900
F1553       F  0.25573228  0.55247828  0.70560376    -0.16200
F1554       F  0.27496317  0.60089420  0.71142608    -0.14700
F1555       F  0.26365375  0.60844201  0.68962137    -0.14700
F1556       F  0.29903532  0.58184966  0.66160312    -0.16100
C1557       C  0.27375865  0.68207790  0.62096740     0.13900
C1558       C  0.27364431  0.67020986  0.61482113     0.00900
C1559       C  0.26838306  0.66937077  0.60253658     0.15900
C1560       C  0.26345223  0.68017189  0.59644617     0.25300
C1561       C  0.26370395  0.69214724  0.60247839    -0.41100
C1562       C  0.26885902  0.69292936  0.61487618     0.32300
C1563       C  0.27915026  0.65869721  0.62103966     0.00900
F1564       F  0.26784567  0.65798295  0.59647851    -0.13400
F1565       F  0.26961126  0.70427051  0.62097735    -0.13900
C1566       C  0.27422999  0.65403951  0.63258680     0.15900
C1567       C  0.27896983  0.64276769  0.63800007     0.25300
C1568       C  0.28880024  0.63583582  0.63197015    -0.41000
C1569       C  0.29393278  0.64083275  0.62053902     0.32200
C1570       C  0.28915341  0.65207327  0.61518914     0.13900
F1571       F  0.26453014  0.66021443  0.63845730    -0.13400
F1572       F  0.30359066  0.63488595  0.61437485    -0.13900
F1573       F  0.27372823  0.63862234  0.64906307    -0.16200
F1574       F  0.29437969  0.65655350  0.60423424    -0.14700
F1575       F  0.27898073  0.68324343  0.63274097    -0.14700
F1576       F  0.25813409  0.67877689  0.58474930    -0.16100
C1577       C  0.26211351  0.88919563  0.83001833     0.13900
C1578       C  0.25944579  0.89401780  0.84220842     0.00900
C1579       C  0.25193548  0.90501971  0.84333684     0.15900
C1580       C  0.24730813  0.91118890  0.83245889     0.25300
C1581       C  0.25002121  0.90640273  0.82024421    -0.41100
C1582       C  0.25741285  0.89530603  0.81913239     0.32300
C1583       C  0.26487418  0.88784258  0.85370686     0.00900
F1584       F  0.24896640  0.90971248  0.85500797    -0.13400
F1585       F  0.26053277  0.89065474  0.80748927    -0.13900
C1586       C  0.27293510  0.89471935  0.86181739     0.15900
C1587       C  0.27830211  0.88894243  0.87254960     0.25300
C1588       C  0.27579453  0.87603381  0.87541900    -0.41000
C1589       C  0.26761435  0.86918630  0.86724064     0.32200
C1590       C  0.26221924  0.87505190  0.85652475     0.13900
F1591       F  0.27583236  0.90703809  0.85919728    -0.13400
F1592       F  0.26490307  0.85675518  0.86945103    -0.13900
F1593       F  0.28589846  0.89612979  0.88012810    -0.16200
F1594       F  0.25427560  0.86825431  0.84893761    -0.14700
F1595       F  0.26963028  0.87878924  0.82864362    -0.14700
F1596       F  0.23991680  0.92167504  0.83390016    -0.16100
C1597       C  0.25565999  0.79848754  0.91820548     0.13900
C1598       C  0.26720101  0.80414445  0.92192251     0.00900
C1599       C  0.27467508  0.79810422  0.93127801     0.15900
C1600       C  0.27043965  0.78692625  0.93716683     0.25300
C1601       C  0.25878263  0.78140738  0.93362090    -0.41100
C1602       C  0.25153336  0.78717949  0.92393133     0.32300
C1603       C  0.27106465  0.81668606  0.91661882     0.00900
F1604       F  0.28609931  0.80305134  0.93472920    -0.13400
F1605       F  0.24010473  0.78226740  0.92046867    -0.13900
C1606       C  0.27360965  0.82689018  0.92487646     0.15900
C1607       C  0.27717363  0.83874931  0.92003405     0.25300
C1608       C  0.27813827  0.84073122  0.90680585    -0.41000
C1609       C  0.27536192  0.83061706  0.89850591     0.32200
C1610       C  0.27195962  0.81866322  0.90337406     0.13900
F1611       F  0.27240912  0.82544506  0.93768030    -0.13400
F1612       F  0.27642520  0.83215612  0.88570461    -0.13900
F1613       F  0.27941506  0.84839876  0.92831752    -0.16200
F1614       F  0.26987506  0.80892609  0.89515763    -0.14700
F1615       F  0.24807935  0.80422257  0.90943523    -0.14700
F1616       F  0.27781480  0.78141642  0.94625271    -0.16100
C1617       C  0.39048896  0.32224689  0.72194092     0.13900
C1618       C  0.38494323  0.31563514  0.73211532     0.00900
C1619       C  0.37364807  0.32017100  0.73754357     0.15900
C1620       C  0.36814454  0.33144076  0.73313629     0.25300
C1621       C  0.37391386  0.33844118  0.72319433    -0.41100
C1622       C  0.38501327  0.33348004  0.71744040     0.32300
C1623       C  0.39117842  0.30422322  0.73736134     0.00900
F1624       F  0.36819678  0.31390977  0.74746455    -0.13400
F1625       F  0.39071018  0.33946986  0.70749467    -0.13900
C1626       C  0.40317808  0.30523599  0.74312017     0.15900
C1627       C  0.40900252  0.29452888  0.74839829     0.25300
C1628       C  0.40291114  0.28260192  0.74796554    -0.41000
C1629       C  0.39092585  0.28160743  0.74207379     0.32200
C1630       C  0.38509638  0.29236024  0.73683950     0.13900
F1631       F  0.40910356  0.31668713  0.74392323    -0.13400
F1632       F  0.38500058  0.27018554  0.74105805    -0.13900
F1633       F  0.42039503  0.29596035  0.75432107    -0.16200
F1634       F  0.37358785  0.29118561  0.73108523    -0.14700
F1635       F  0.40127988  0.31782301  0.71638662    -0.14700
F1636       F  0.35736467  0.33559087  0.73890205    -0.16100
C1637       C  0.33062348  0.39066365  0.73653355     0.13900
C1638       C  0.31963145  0.38312305  0.73747391     0.00900
C1639       C  0.32019189  0.37024756  0.73396407     0.15900
C1640       C  0.33149584  0.36510195  0.72917945     0.25300
C1641       C  0.34234137  0.37281769  0.72771164    -0.41100
C1642       C  0.34184887  0.38559460  0.73160862     0.32300
C1643       C  0.30745819  0.38900614  0.74132099     0.00900
F1644       F  0.30964922  0.36281741  0.73463328    -0.13400
F1645       F  0.35227616  0.39317355  0.73074962    -0.13900
C1646       C  0.30262090  0.39927915  0.73425979     0.15900
C1647       C  0.29147885  0.40537300  0.73805659     0.25300
C1648       C  0.28489950  0.40127552  0.74896993    -0.41000
C1649       C  0.28950426  0.39070887  0.75583337     0.32200
C1650       C  0.30074970  0.38464462  0.75205166     0.13900
F1651       F  0.30868127  0.40336495  0.72358566    -0.13400
F1652       F  0.28343820  0.38658232  0.76648314    -0.13900
F1653       F  0.28698421  0.41514007  0.73087639    -0.16200
F1654       F  0.30531710  0.37480613  0.75909447    -0.14700
F1655       F  0.33043615  0.40300763  0.74031508    -0.14700
F1656       F  0.33164349  0.35276048  0.72539715    -0.16100
C1657       C  0.29463417  0.07290529  0.80550006     0.13900
C1658       C  0.30165723  0.08095998  0.79749096     0.00900
C1659       C  0.29723729  0.08353229  0.78514161     0.15900
C1660       C  0.28595763  0.07798768  0.78077646     0.25300
C1661       C  0.27895228  0.06978060  0.78873561    -0.41100
C1662       C  0.28335168  0.06737007  0.80117694     0.32300
C1663       C  0.31384203  0.08631140  0.80188968     0.00900
F1664       F  0.30407579  0.09109974  0.77719426    -0.13400
F1665       F  0.27661619  0.05984361  0.80924746    -0.13900
C1666       C  0.32444565  0.07835027  0.80333873     0.15900
C1667       C  0.33600196  0.08329661  0.80762272     0.25300
C1668       C  0.33713845  0.09631284  0.81049128    -0.41000
C1669       C  0.32649550  0.10430070  0.80897782     0.32200
C1670       C  0.31490993  0.09930810  0.80471407     0.13900
F1671       F  0.32361254  0.06579069  0.80046958    -0.13400
F1672       F  0.32717125  0.11681311  0.81208122    -0.13900
F1673       F  0.34616109  0.07539710  0.80872851    -0.16200
F1674       F  0.30464224  0.10706805  0.80362323    -0.14700
F1675       F  0.29871092  0.07045113  0.81753412    -0.14700
F1676       F  0.28219876  0.08021825  0.76860059    -0.16100
C1677       C  0.38153629  0.17433799  0.79392502     0.13900
C1678       C  0.38749962  0.16527499  0.80174380     0.00900
C1679       C  0.39984845  0.16770844  0.80624641     0.15900
C1680       C  0.40603584  0.17907077  0.80320551     0.25300
C1681       C  0.40018863  0.18814540  0.79519279    -0.41100
C1682       C  0.38783259  0.18558386  0.79057548     0.32300
C1683       C  0.38084176  0.15337946  0.80543962     0.00900
F1684       F  0.40602496  0.15897910  0.81352732    -0.13400
F1685       F  0.38184659  0.19375438  0.78256174    -0.13900
C1686       C  0.37583284  0.14513132  0.79614419     0.15900
C1687       C  0.37008434  0.13365334  0.79974764     0.25300
C1688       C  0.36955901  0.13012075  0.81265966    -0.41000
C1689       C  0.37435812  0.13845453  0.82193444     0.32200
C1690       C  0.37978027  0.15004373  0.81837561     0.13900
F1691       F  0.37696442  0.14793685  0.78356186    -0.13400
F1692       F  0.37367996  0.13541724  0.83449646    -0.13900
F1693       F  0.36562308  0.12571006  0.79059041    -0.16200
F1694       F  0.38399032  0.15804853  0.82759876    -0.14700
F1695       F  0.36950894  0.17238480  0.78963413    -0.14700
F1696       F  0.41766730  0.18119895  0.80838394    -0.16100
C1697       C  0.09022193  0.14781345  0.74010511     0.13900
C1698       C  0.08167496  0.15526583  0.73307936     0.00900
C1699       C  0.07905665  0.15214898  0.72036400     0.15900
C1700       C  0.08492564  0.14167102  0.71469772     0.25300
C1701       C  0.09343284  0.13402812  0.72173398    -0.41100
C1702       C  0.09603100  0.13725266  0.73452209     0.32300
C1703       C  0.07538451  0.16627169  0.73902331     0.00900
F1704       F  0.07092501  0.15938912  0.71338565    -0.13400
F1705       F  0.10392965  0.13002655  0.74177364    -0.13900
C1706       C  0.08237573  0.17721220  0.74201462     0.15900
C1707       C  0.07627324  0.18790280  0.74703604     0.25300
C1708       C  0.06304384  0.18773032  0.74936385    -0.41000
C1709       C  0.05621376  0.17644711  0.74682486     0.32200
C1710       C  0.06231136  0.16591352  0.74153183     0.13900
F1711       F  0.09507140  0.17766736  0.73967581    -0.13400
F1712       F  0.04366261  0.17542877  0.74964490    -0.13900
F1713       F  0.08330516  0.19851267  0.74911361    -0.16200
F1714       F  0.05545885  0.15528278  0.73891775    -0.14700
F1715       F  0.09272198  0.15062868  0.75247619    -0.14700
F1716       F  0.08247231  0.13921840  0.70224592    -0.16100
C1717       C  0.14796047  0.10612907  0.73244367     0.13900
C1718       C  0.15074792  0.09312051  0.73167357     0.00900
C1719       C  0.14228766  0.08494330  0.72538986     0.15900
C1720       C  0.13112273  0.08966727  0.71994161     0.25300
C1721       C  0.12814699  0.10270111  0.72078998    -0.41100
C1722       C  0.13671068  0.11089084  0.72712661     0.32300
C1723       C  0.16238838  0.08784911  0.73747778     0.00900
F1724       F  0.14489006  0.07232351  0.72453122    -0.13400
F1725       F  0.13430723  0.12354324  0.72805953    -0.13900
C1726       C  0.16142921  0.07972759  0.74805369     0.15900
C1727       C  0.17211643  0.07318395  0.75247897     0.25300
C1728       C  0.18394645  0.07475824  0.74644245    -0.41000
C1729       C  0.18504126  0.08341695  0.73626779     0.32200
C1730       C  0.17429795  0.08990583  0.73178904     0.13900
F1731       F  0.15005467  0.07797142  0.75392462    -0.13400
F1732       F  0.19633084  0.08502325  0.73019750    -0.13900
F1733       F  0.17091204  0.06530964  0.76267407    -0.16200
F1734       F  0.17537780  0.09770773  0.72152327    -0.14700
F1735       F  0.15604254  0.11417248  0.73850789    -0.14700
F1736       F  0.12308007  0.08137933  0.71417711    -0.16100
C1737       C  0.08653070  0.32006076  0.81423493     0.13900
C1738       C  0.08591227  0.31767297  0.80107757     0.00900
C1739       C  0.09183677  0.32619103  0.79259137     0.15900
C1740       C  0.09785700  0.33714914  0.79716950     0.25300
C1741       C  0.09783651  0.33986858  0.81028586    -0.41100
C1742       C  0.09234101  0.33109601  0.81878817     0.32300
C1743       C  0.07860830  0.30661553  0.79624320     0.00900
F1744       F  0.09128611  0.32420909  0.77982421    -0.13400
F1745       F  0.09264787  0.33317754  0.83155148    -0.13900
C1746       C  0.06576890  0.30505390  0.79964589     0.15900
C1747       C  0.05882490  0.29460583  0.79525085     0.25300
C1748       C  0.06453073  0.28555008  0.78719276    -0.41000
C1749       C  0.07735268  0.28726353  0.78362732     0.32200
C1750       C  0.08433482  0.29762924  0.78819678     0.13900
F1751       F  0.05988765  0.31374451  0.80717343    -0.13400
F1752       F  0.08311777  0.27908085  0.77548538    -0.13900
F1753       F  0.04661374  0.29323116  0.79920683    -0.16200
F1754       F  0.09677244  0.29877934  0.78490627    -0.14700
F1755       F  0.08143667  0.31170718  0.82269507    -0.14700
F1756       F  0.10309536  0.34541821  0.78871732    -0.16100
C1757       C  0.14945574  0.37256071  0.79670564     0.13900
C1758       C  0.15323590  0.38472483  0.80067304     0.00900
C1759       C  0.14555267  0.39149198  0.80920661     0.15900
C1760       C  0.13415628  0.38631409  0.81359242     0.25300
C1761       C  0.13021771  0.37407501  0.80966126    -0.41100
C1762       C  0.13805950  0.36726663  0.80113030     0.32300
C1763       C  0.16494985  0.39066461  0.79564448     0.00900
F1764       F  0.14915421  0.40317154  0.81338299    -0.13400
F1765       F  0.13479464  0.35547128  0.79703517    -0.13900
C1766       C  0.16418900  0.40228586  0.78908847     0.15900
C1767       C  0.17520100  0.40838746  0.78489047     0.25300
C1768       C  0.18722986  0.40294361  0.78710505    -0.41000
C1769       C  0.18797172  0.39114452  0.79346522     0.32200
C1770       C  0.17690479  0.38507213  0.79772292     0.13900
F1771       F  0.15270801  0.40769381  0.78666102    -0.13400
F1772       F  0.19940527  0.38570564  0.79601426    -0.13900
F1773       F  0.17402149  0.41949017  0.77838305    -0.16200
F1774       F  0.17788340  0.37394693  0.80424319    -0.14700
F1775       F  0.15668588  0.36590366  0.78832986    -0.14700
F1776       F  0.12699181  0.39345511  0.82161679    -0.16100
C1777       C  0.81811656  0.20237580  0.62494239     0.13900
C1778       C  0.81434093  0.19906364  0.61254937     0.00900
C1779       C  0.82233780  0.19128316  0.60520838     0.15900
C1780       C  0.83393944  0.18695695  0.61009412     0.25300
C1781       C  0.83784438  0.19027486  0.62252734    -0.41100
C1782       C  0.82970643  0.19801903  0.62990319     0.32300
C1783       C  0.80206457  0.20360290  0.60720067     0.00900
F1784       F  0.81881757  0.18770846  0.59328870    -0.13400
F1785       F  0.83280655  0.20127290  0.64201769    -0.13900
C1786       C  0.80184759  0.21044720  0.59568775     0.15900
C1787       C  0.79028400  0.21381208  0.59002349     0.25300
C1788       C  0.77866810  0.21046049  0.59579689    -0.41000
C1789       C  0.77889091  0.20409539  0.60761273     0.32200
C1790       C  0.79048671  0.20066377  0.61323816     0.13900
F1791       F  0.81288406  0.21391715  0.58993160    -0.13400
F1792       F  0.76789596  0.20065877  0.61345719    -0.13900
F1793       F  0.79048564  0.22055539  0.57898328    -0.16200
F1794       F  0.79038604  0.19401178  0.62433708    -0.14700
F1795       F  0.81065210  0.21001005  0.63220208    -0.14700
F1796       F  0.84137666  0.17964466  0.60249572    -0.16100
C1797       C  0.89011708  0.19534880  0.66964677     0.13900
C1798       C  0.88369339  0.20513348  0.67600706     0.00900
C1799       C  0.87203181  0.20948155  0.67120519     0.15900
C1800       C  0.86670678  0.20395725  0.66030561     0.25300
C1801       C  0.87292876  0.19382950  0.65400781    -0.41100
C1802       C  0.88483549  0.18973616  0.65879567     0.32300
C1803       C  0.88899672  0.21044669  0.68792113     0.00900
F1804       F  0.86580639  0.21914308  0.67708270    -0.13400
F1805       F  0.89143583  0.18021074  0.65311897    -0.13900
C1806       C  0.90045195  0.21731072  0.68775273     0.15900
C1807       C  0.90586330  0.22161671  0.69914042     0.25300
C1808       C  0.89990528  0.21909491  0.71088564    -0.41000
C1809       C  0.88827013  0.21248529  0.71099787     0.32200
C1810       C  0.88288187  0.20817072  0.69960032     0.13900
F1811       F  0.90637198  0.21985134  0.67653814    -0.13400
F1812       F  0.88240421  0.20969036  0.72217797    -0.13900
F1813       F  0.91681665  0.22844333  0.69866487    -0.16200
F1814       F  0.87192280  0.20134665  0.69998769    -0.14700
F1815       F  0.90140843  0.19097834  0.67417078    -0.14700
F1816       F  0.85541523  0.20855094  0.65604960    -0.16100
C1817       C  0.63941467  0.26977195  0.61096038     0.13900
C1818       C  0.64951061  0.26531520  0.61853861     0.00900
C1819       C  0.64865240  0.26641020  0.63186903     0.15900
C1820       C  0.63787159  0.27187315  0.63748757     0.25300
C1821       C  0.62787310  0.27652261  0.62985184    -0.41100
C1822       C  0.62881256  0.27546789  0.61652164     0.32300
C1823       C  0.66094318  0.25981912  0.61234847     0.00900
F1824       F  0.65836884  0.26247492  0.63943487    -0.13400
F1825       F  0.61927659  0.27957282  0.60881169    -0.13900
C1826       C  0.66716474  0.26666411  0.60266319     0.15900
C1827       C  0.67716227  0.26119032  0.59588132     0.25300
C1828       C  0.68142860  0.24888667  0.59888604    -0.41000
C1829       C  0.67560750  0.24220289  0.60894465     0.32200
C1830       C  0.66534221  0.24757488  0.61554326     0.13900
F1831       F  0.66356438  0.27873507  0.59978285    -0.13400
F1832       F  0.67949400  0.23027214  0.61202396    -0.13900
F1833       F  0.68286083  0.26807057  0.58653276    -0.16200
F1834       F  0.65941499  0.24063300  0.62470722    -0.14700
F1835       F  0.63970462  0.26838880  0.59810059    -0.14700
F1836       F  0.63736678  0.27291288  0.65037123    -0.16100
C1837       C  0.59647388  0.26435841  0.68301813     0.13900
C1838       C  0.58334140  0.26193208  0.68329192     0.00900
C1839       C  0.57577839  0.26561548  0.67289255     0.15900
C1840       C  0.58119865  0.27185433  0.66246072     0.25300
C1841       C  0.59432631  0.27447502  0.66221136    -0.41100
C1842       C  0.60194148  0.27056509  0.67254812     0.32300
C1843       C  0.57732933  0.25628118  0.69471228     0.00900
F1844       F  0.56311133  0.26308762  0.67283190    -0.13400
F1845       F  0.61460243  0.27312007  0.67270982    -0.13900
C1846       C  0.56863861  0.26350224  0.70180535     0.15900
C1847       C  0.56260994  0.25825965  0.71243478     0.25300
C1848       C  0.56521927  0.24569145  0.71623476    -0.41000
C1849       C  0.57409685  0.23850220  0.70925222     0.32200
C1850       C  0.58006551  0.24375076  0.69851070     0.13900
F1851       F  0.56610125  0.27573075  0.69848577    -0.13400
F1852       F  0.57662857  0.22626668  0.71253588    -0.13900
F1853       F  0.55443834  0.26561011  0.71920299    -0.16200
F1854       F  0.58822864  0.23651025  0.69160763    -0.14700
F1855       F  0.60391903  0.26107811  0.69307380    -0.14700
F1856       F  0.57363364  0.27503636  0.65246482    -0.16100
C1857       C  0.82776783  0.27502801  0.92231603     0.13900
C1858       C  0.81900494  0.26801184  0.91505514     0.00900
C1859       C  0.82156437  0.26591712  0.90208885     0.15900
C1860       C  0.83257562  0.27086435  0.89644396     0.25300
C1861       C  0.84143369  0.27791466  0.90370068    -0.41100
C1862       C  0.83886111  0.27985339  0.91676304     0.32300
C1863       C  0.80717433  0.26301066  0.92101837     0.00900
F1864       F  0.81346236  0.25889936  0.89488079    -0.13400
F1865       F  0.84705700  0.28638910  0.92430057    -0.13900
C1866       C  0.79516589  0.26599058  0.91587733     0.15900
C1867       C  0.78402255  0.26159823  0.92174411     0.25300
C1868       C  0.78466144  0.25433215  0.93299769    -0.41000
C1869       C  0.79667798  0.25127724  0.93807424     0.32200
C1870       C  0.80780733  0.25546633  0.93208132     0.13900
F1871       F  0.79420337  0.27352307  0.90539878    -0.13400
F1872       F  0.79768659  0.24396079  0.94869701    -0.13900
F1873       F  0.77259848  0.26491236  0.91670291    -0.16200
F1874       F  0.81924159  0.25200359  0.93701290    -0.14700
F1875       F  0.82547557  0.27744206  0.93481145    -0.14700
F1876       F  0.83441575  0.26880029  0.88381342    -0.16100
C1877       C  0.87981250  0.28425477  0.84641555     0.13900
C1878       C  0.88024093  0.27113757  0.84394691     0.00900
C1879       C  0.87599411  0.26253899  0.85326442     0.15900
C1880       C  0.87143611  0.26699001  0.86494478     0.25300
C1881       C  0.87132052  0.28010031  0.86757454    -0.41100
C1882       C  0.87550219  0.28870980  0.85820337     0.32300
C1883       C  0.88579338  0.26642701  0.83193059     0.00900
F1884       F  0.87638851  0.24982299  0.85107352    -0.13400
F1885       F  0.87530480  0.30142583  0.86042443    -0.13900
C1886       C  0.89746825  0.25996551  0.83213198     0.15900
C1887       C  0.90321371  0.25618276  0.82075826     0.25300
C1888       C  0.89731391  0.25872278  0.80898156    -0.41000
C1889       C  0.88540446  0.26481914  0.80882265     0.32200
C1890       C  0.87973369  0.26873387  0.82022662     0.13900
F1891       F  0.90346758  0.25762738  0.84335625    -0.13400
F1892       F  0.87951041  0.26746449  0.79761724    -0.13900
F1893       F  0.91449496  0.24991689  0.82128612    -0.16200
F1894       F  0.86837588  0.27486634  0.81986409    -0.14700
F1895       F  0.88392071  0.29270777  0.83752715    -0.14700
F1896       F  0.86762958  0.25845752  0.87389060    -0.16100
C1897       C  0.64779482  0.20327206  0.90339728     0.13900
C1898       C  0.65348576  0.19777724  0.91419329     0.00900
C1899       C  0.64789923  0.18695677  0.91967102     0.15900
C1900       C  0.63672885  0.18177898  0.91460992     0.25300
C1901       C  0.63072541  0.18739065  0.90394278    -0.41100
C1902       C  0.63650500  0.19819689  0.89834737     0.32300
C1903       C  0.66504090  0.20341652  0.92008985     0.00900
F1904       F  0.65338387  0.18128992  0.92992980    -0.13400
F1905       F  0.63113946  0.20408122  0.88815266    -0.13900
C1906       C  0.66443728  0.20837998  0.93248511     0.15900
C1907       C  0.67541380  0.21286044  0.93855816     0.25300
C1908       C  0.68731031  0.21245579  0.93236926    -0.41000
C1909       C  0.68783670  0.20773895  0.91979935     0.32200
C1910       C  0.67679825  0.20327524  0.91372806     0.13900
F1911       F  0.65313751  0.20889863  0.93872551    -0.13400
F1912       F  0.69910594  0.20690822  0.91355387    -0.13900
F1913       F  0.67430045  0.21779838  0.95044174    -0.16200
F1914       F  0.67767299  0.19836164  0.90180790    -0.14700
F1915       F  0.65299735  0.21376899  0.89793702    -0.14700
F1916       F  0.63195378  0.17112299  0.92013281    -0.16100
C1917       C  0.58732463  0.17752073  0.84999881     0.13900
C1918       C  0.58717510  0.19027542  0.84598766     0.00900
C1919       C  0.59331259  0.19950250  0.85349901     0.15900
C1920       C  0.59915462  0.19607753  0.86501597     0.25300
C1921       C  0.59879789  0.18339223  0.86929663    -0.41100
C1922       C  0.59299939  0.17412273  0.86156256     0.32300
C1923       C  0.58023105  0.19396096  0.83421820     0.00900
F1924       F  0.59316164  0.21192874  0.84996024    -0.13400
F1925       F  0.59286550  0.16171655  0.86517839    -0.13900
C1926       C  0.56724661  0.19108477  0.83288866     0.15900
C1927       C  0.56063541  0.19450674  0.82182833     0.25300
C1928       C  0.56681290  0.20114809  0.81188797    -0.41000
C1929       C  0.57986262  0.20400435  0.81330069     0.32200
C1930       C  0.58648287  0.20037421  0.82429424     0.13900
F1931       F  0.56087269  0.18512632  0.84244207    -0.13400
F1932       F  0.58625211  0.21065346  0.80426163    -0.13900
F1933       F  0.54822274  0.19109950  0.82087434    -0.16200
F1934       F  0.59907787  0.20307600  0.82520608    -0.14700
F1935       F  0.58193077  0.16833187  0.84269880    -0.14700
F1936       F  0.60454248  0.20528210  0.87229156    -0.16100
C1937       C  0.77188806  0.32714360  0.10754086     0.13900
C1938       C  0.76980297  0.31684480  0.11582266     0.00900
C1939       C  0.77185605  0.31844743  0.12894734     0.15900
C1940       C  0.77609128  0.33014414  0.13370031     0.25300
C1941       C  0.77832829  0.34043869  0.12538066    -0.41100
C1942       C  0.77615904  0.33880652  0.11224896     0.32300
C1943       C  0.76575580  0.30439431  0.11063627     0.00900
F1944       F  0.77002291  0.30859380  0.13712078    -0.13400
F1945       F  0.77780059  0.34861171  0.10397240    -0.13900
C1946       C  0.77355013  0.29798630  0.10188239     0.15900
C1947       C  0.76949137  0.28661188  0.09632255     0.25300
C1948       C  0.75757314  0.28139890  0.09946468    -0.41000
C1949       C  0.74994247  0.28760876  0.10855348     0.32200
C1950       C  0.75398630  0.29905131  0.11405532     0.13900
F1951       F  0.78513313  0.30277209  0.09874022    -0.13400
F1952       F  0.73830341  0.28294654  0.11164856    -0.13900
F1953       F  0.77730058  0.28059858  0.08798251    -0.16200
F1954       F  0.74620097  0.30517543  0.12234256    -0.14700
F1955       F  0.76954731  0.32595836  0.09487464    -0.14700
F1956       F  0.77832646  0.33128144  0.14639041    -0.16100
C1957       C  0.77019902  0.36952616  0.18035424     0.13900
C1958       C  0.76748087  0.38248763  0.18202726     0.00900
C1959       C  0.76882602  0.39086318  0.17166910     0.15900
C1960       C  0.77326676  0.38646259  0.15994118     0.25300
C1961       C  0.77634881  0.37354786  0.15830816    -0.41100
C1962       C  0.77458596  0.36507601  0.16858772     0.32300
C1963       C  0.76376110  0.38749875  0.19465075     0.00900
F1964       F  0.76575065  0.40334276  0.17291842    -0.13400
F1965       F  0.77754951  0.35256507  0.16741524    -0.13900
C1966       C  0.77123840  0.39692049  0.20045833     0.15900
C1967       C  0.76732062  0.40254882  0.21182914     0.25300
C1968       C  0.75590618  0.39876813  0.21767885    -0.41000
C1969       C  0.74869772  0.38891505  0.21218939     0.32200
C1970       C  0.75258087  0.38334860  0.20071288     0.13900
F1971       F  0.78233068  0.40073085  0.19503131    -0.13400
F1972       F  0.73754333  0.38517879  0.21752782    -0.13900
F1973       F  0.77472324  0.41168967  0.21715602    -0.16200
F1974       F  0.74514116  0.37432982  0.19522975    -0.14700
F1975       F  0.76901104  0.36125656  0.19023393    -0.14700
F1976       F  0.77430506  0.39481724  0.15011778    -0.16100
C1977       C  0.69449739  0.40128337  0.33006533     0.13900
C1978       C  0.70236420  0.39247516  0.33638230     0.00900
C1979       C  0.71398455  0.38897493  0.33075393     0.15900
C1980       C  0.71765966  0.39417216  0.31902982     0.25300
C1981       C  0.70983474  0.40306594  0.31276760    -0.41100
C1982       C  0.69822198  0.40657868  0.31841664     0.32300
C1983       C  0.69843559  0.38702499  0.34884401     0.00900
F1984       F  0.72196104  0.38078848  0.33679133    -0.13400
F1985       F  0.69029339  0.41490883  0.31251377    -0.13900
C1986       C  0.69758030  0.37378184  0.35055269     0.15900
C1987       C  0.69352928  0.36868906  0.36220495     0.25300
C1988       C  0.69008269  0.37675528  0.37233195    -0.41000
C1989       C  0.69108422  0.39001076  0.37063487     0.32200
C1990       C  0.69530538  0.39507394  0.35905240     0.13900
F1991       F  0.70031813  0.36576670  0.34080339    -0.13400
F1992       F  0.68827129  0.39810824  0.38029425    -0.13900
F1993       F  0.69256899  0.35586787  0.36340729    -0.16200
F1994       F  0.69652728  0.40787922  0.35786733    -0.14700
F1995       F  0.68306811  0.40460359  0.33508121    -0.14700
F1996       F  0.72911397  0.39087421  0.31406902    -0.16100
C1997       C  0.69551471  0.30014170  0.42800975     0.13900
C1998       C  0.70412052  0.30745819  0.42081190     0.00900
C1999       C  0.71661651  0.30301183  0.41912137     0.15900
C2000       C  0.72047967  0.29152814  0.42468366     0.25300
C2001       C  0.71195026  0.28439265  0.43215068    -0.41100
C2002       C  0.69942219  0.28876448  0.43371066     0.32300
C2003       C  0.70012173  0.31993086  0.41553539     0.00900
F2004       F  0.72521137  0.31002463  0.41248736    -0.13400
F2005       F  0.69089014  0.28189593  0.44057428    -0.13900
C2006       C  0.69539620  0.32935474  0.42371531     0.15900
C2007       C  0.69103405  0.34093068  0.41885815     0.25300
C2008       C  0.69133834  0.34341079  0.40564673    -0.41000
C2009       C  0.69646991  0.33407470  0.39748265     0.32200
C2010       C  0.70078874  0.32244122  0.40239470     0.13900
F2011       F  0.69512441  0.32738526  0.43650463    -0.13400
F2012       F  0.69696323  0.33598631  0.38469792    -0.13900
F2013       F  0.68669413  0.34977027  0.42719750    -0.16200
F2014       F  0.70526681  0.31346890  0.39426240    -0.14700
F2015       F  0.68327798  0.30401089  0.42946455    -0.14700
F2016       F  0.73272348  0.28768253  0.42325722    -0.16100
C2017       C  0.70089624  0.08419123  0.20998605     0.13900
C2018       C  0.70390767  0.07933605  0.19790786     0.00900
C2019       C  0.71120302  0.06819307  0.19700700     0.15900
C2020       C  0.71535838  0.06191650  0.20803342     0.25300
C2021       C  0.71245395  0.06680400  0.22017671    -0.41100
C2022       C  0.70522640  0.07805306  0.22103315     0.32300
C2023       C  0.69914148  0.08565981  0.18622368     0.00900
F2024       F  0.71416887  0.06331326  0.18541441    -0.13400
F2025       F  0.70203216  0.08291673  0.23256738    -0.13900
C2026       C  0.70746378  0.09242230  0.17823009     0.15900
C2027       C  0.70300790  0.09794210  0.16689954     0.25300
C2028       C  0.69017295  0.09657608  0.16327505    -0.41000
C2029       C  0.68182976  0.08996785  0.17146655     0.32200
C2030       C  0.68627392  0.08462419  0.18284720     0.13900
F2031       F  0.71994016  0.09356983  0.18136629    -0.13400
F2032       F  0.66931706  0.08871655  0.16850184    -0.13900
F2033       F  0.71136390  0.10416491  0.15924955    -0.16200
F2034       F  0.67806614  0.07814428  0.19044865    -0.14700
F2035       F  0.69377252  0.09490516  0.21105644    -0.14700
F2036       F  0.72249837  0.05123370  0.20680742    -0.16100
C2037       C  0.69647135  0.15070134  0.13004816     0.13900
C2038       C  0.69970399  0.15120631  0.11704495     0.00900
C2039       C  0.69879549  0.14004183  0.10972303     0.15900
C2040       C  0.69449207  0.12868216  0.11521962     0.25300
C2041       C  0.69128587  0.12817556  0.12822191    -0.41100
C2042       C  0.69242945  0.13926114  0.13561312     0.32300
C2043       C  0.70380340  0.16337453  0.11104061     0.00900
F2044       F  0.70221223  0.14010970  0.09724629    -0.13400
F2045       F  0.68908611  0.13915568  0.14810480    -0.13900
C2046       C  0.71423832  0.17022008  0.11588062     0.15900
C2047       C  0.71821111  0.18154218  0.11002718     0.25300
C2048       C  0.71188384  0.18619264  0.09913775    -0.41000
C2049       C  0.70136579  0.17938912  0.09439789     0.32200
C2050       C  0.69734584  0.16814930  0.10031359     0.13900
F2051       F  0.72084578  0.16572962  0.12605598    -0.13400
F2052       F  0.69474237  0.18376398  0.08418616    -0.13900
F2053       F  0.72856894  0.18765137  0.11473015    -0.16200
F2054       F  0.68697863  0.16201148  0.09565794    -0.14700
F2055       F  0.69680530  0.16139790  0.13726585    -0.14700
F2056       F  0.69367282  0.11809970  0.10786950    -0.16100
C2057       C  0.78743990  0.08775385  0.35051349     0.13900
C2058       C  0.77518468  0.09099366  0.34634853     0.00900
C2059       C  0.76813285  0.10002159  0.35317237     0.15900
C2060       C  0.77308193  0.10543832  0.36430817     0.25300
C2061       C  0.78519068  0.10183967  0.36884850    -0.41100
C2062       C  0.79242586  0.09313034  0.36164288     0.32300
C2063       C  0.76930213  0.08409356  0.33559327     0.00900
F2064       F  0.75624213  0.10323615  0.34927846    -0.13400
F2065       F  0.80433083  0.08976228  0.36537224    -0.13900
C2066       C  0.76276574  0.07270491  0.33792796     0.15900
C2067       C  0.75712794  0.06600359  0.32790735     0.25300
C2068       C  0.75796329  0.07056196  0.31529773    -0.41000
C2069       C  0.76447104  0.08207968  0.31300889     0.32200
C2070       C  0.77010304  0.08877574  0.32309407     0.13900
F2071       F  0.76180025  0.06811020  0.34998880    -0.13400
F2072       F  0.76573456  0.08668023  0.30098558    -0.13900
F2073       F  0.75055915  0.05522524  0.33063436    -0.16200
F2074       F  0.77643263  0.09976932  0.32066156    -0.14700
F2075       F  0.79445068  0.07912600  0.34395030    -0.14700
F2076       F  0.76573110  0.11370084  0.37095624    -0.16100
C2077       C  0.78698700  0.15145199  0.41887575     0.13900
C2078       C  0.77682556  0.15793863  0.41313159     0.00900
C2079       C  0.77149286  0.15307184  0.40190518     0.15900
C2080       C  0.77600067  0.14168343  0.39666520     0.25300
C2081       C  0.78606860  0.13492201  0.40252414    -0.41100
C2082       C  0.79161961  0.14013131  0.41363171     0.32300
C2083       C  0.77144728  0.16946636  0.41920458     0.00900
F2084       F  0.76160411  0.15915719  0.39622609    -0.13400
F2085       F  0.80156296  0.13433946  0.41951461    -0.13900
C2086       C  0.77214012  0.18138287  0.41316164     0.15900
C2087       C  0.76726851  0.19226250  0.41914509     0.25300
C2088       C  0.76158620  0.19137894  0.43127768    -0.41000
C2089       C  0.76061855  0.17933403  0.43711379     0.32200
C2090       C  0.76555511  0.16852775  0.43116294     0.13900
F2091       F  0.77780968  0.18251645  0.40159573    -0.13400
F2092       F  0.75453540  0.17789406  0.44842826    -0.13900
F2093       F  0.76847648  0.20368900  0.41322982    -0.16200
F2094       F  0.76438106  0.15704909  0.43699487    -0.14700
F2095       F  0.79246198  0.15612939  0.42961287    -0.14700
F2096       F  0.77023207  0.13720189  0.38601313    -0.16100
C2097       C  0.59319244  0.82386760  0.24199773     0.13900
C2098       C  0.58506415  0.81642120  0.23450297     0.00900
C2099       C  0.58270560  0.81994875  0.22183918     0.15900
C2100       C  0.58828908  0.83090740  0.21673892     0.25300
C2101       C  0.59641726  0.83854981  0.22424640    -0.41100
C2102       C  0.59888636  0.83478922  0.23692567     0.32300
C2103       C  0.57890045  0.80502375  0.23992563     0.00900
F2104       F  0.57479620  0.81286510  0.21447509    -0.13400
F2105       F  0.60651650  0.84183894  0.24459098    -0.13900
C2106       C  0.56866324  0.80630135  0.24840532     0.15900
C2107       C  0.56245617  0.79550658  0.25311878     0.25300
C2108       C  0.56650672  0.78328137  0.24951451    -0.41000
C2109       C  0.57701868  0.78202847  0.24132556     0.32200
C2110       C  0.58308344  0.79283929  0.23646073     0.13900
F2111       F  0.56455155  0.81802061  0.25192269    -0.13400
F2112       F  0.58112004  0.77035446  0.23765602    -0.13900
F2113       F  0.55262706  0.79698993  0.26137147    -0.16200
F2114       F  0.59300140  0.79144470  0.22830223    -0.14700
F2115       F  0.59558274  0.82055160  0.25427398    -0.14700
F2116       F  0.58576398  0.83393293  0.20441521    -0.16100
C2117       C  0.64234980  0.89192019  0.22797791     0.13900
C2118       C  0.64967688  0.88552201  0.23713129     0.00900
C2119       C  0.64616496  0.87315300  0.24079535     0.15900
C2120       C  0.63550198  0.86725379  0.23538993     0.25300
C2121       C  0.62812213  0.87360437  0.22610370    -0.41100
C2122       C  0.63173377  0.88607670  0.22251638     0.32300
C2123       C  0.66102920  0.89174523  0.24276744     0.00900
F2124       F  0.65299757  0.86682212  0.24976805    -0.13400
F2125       F  0.62504372  0.89277484  0.21371241    -0.13900
C2126       C  0.65986585  0.90335462  0.24928349     0.15900
C2127       C  0.67060176  0.90929421  0.25447246     0.25300
C2128       C  0.68272498  0.90370573  0.25328110    -0.41000
C2129       C  0.68386022  0.89210759  0.24669200     0.32200
C2130       C  0.67312050  0.88620586  0.24147712     0.13900
F2131       F  0.64827322  0.90884544  0.25079838    -0.13400
F2132       F  0.69543326  0.88670135  0.24484357    -0.13900
F2133       F  0.66905953  0.92035653  0.26093774    -0.16200
F2134       F  0.67457659  0.87523548  0.23483239    -0.14700
F2135       F  0.64562177  0.90381350  0.22411567    -0.14700
F2136       F  0.63253015  0.85528855  0.23924311    -0.16100
C2137       C  0.58044403  0.64788065  0.31598657     0.13900
C2138       C  0.58574202  0.65411459  0.30545631     0.00900
C2139       C  0.59688245  0.64929970  0.29991563     0.15900
C2140       C  0.60266518  0.63833182  0.30485301     0.25300
C2141       C  0.59741370  0.63200731  0.31552620    -0.41100
C2142       C  0.58614965  0.63698058  0.32097436     0.32300
C2143       C  0.57949740  0.66564668  0.30037270     0.00900
F2144       F  0.60206282  0.65513793  0.28960153    -0.13400
F2145       F  0.58051886  0.63139444  0.33118420    -0.13900
C2146       C  0.58543284  0.67756234  0.30136617     0.15900
C2147       C  0.57901521  0.68859892  0.29755051     0.25300
C2148       C  0.56654984  0.68786105  0.29266735    -0.41000
C2149       C  0.56075431  0.67585357  0.29145398     0.32200
C2150       C  0.56717692  0.66486191  0.29528028     0.13900
F2151       F  0.59726694  0.67853777  0.30646071    -0.13400
F2152       F  0.54897367  0.67468428  0.28628992    -0.13900
F2153       F  0.58481359  0.70002817  0.29910503    -0.16200
F2154       F  0.56137587  0.65339599  0.29399681    -0.14700
F2155       F  0.56976505  0.65250315  0.32159967    -0.14700
F2156       F  0.61338314  0.63397606  0.29912765    -0.16100
C2157       C  0.64346118  0.59242569  0.29683547     0.13900
C2158       C  0.65257489  0.58652761  0.30471618     0.00900
C2159       C  0.65106407  0.58720979  0.31801515     0.15900
C2160       C  0.64048525  0.59326771  0.32331441     0.25300
C2161       C  0.63130840  0.59907024  0.31545044    -0.41100
C2162       C  0.63301741  0.59877540  0.30215392     0.32300
C2163       C  0.66356260  0.57953619  0.29915504     0.00900
F2164       F  0.65993438  0.58211232  0.32592672    -0.13400
F2165       F  0.62429793  0.60414657  0.29425974    -0.13900
C2166       C  0.67161336  0.58540880  0.29020304     0.15900
C2167       C  0.68203122  0.57884621  0.28512162     0.25300
C2168       C  0.68479135  0.56632859  0.28906802    -0.41000
C2169       C  0.67674658  0.56049524  0.29809212     0.32200
C2170       C  0.66618001  0.56696016  0.30293689     0.13900
F2171       F  0.66952757  0.59761271  0.28651008    -0.13400
F2172       F  0.67923307  0.54861836  0.30252523    -0.13900
F2173       F  0.68921796  0.58469623  0.27611531    -0.16200
F2174       F  0.65840875  0.56084094  0.31126900    -0.14700
F2175       F  0.64441643  0.59166435  0.28395966    -0.14700
F2176       F  0.63933843  0.59362364  0.33619615    -0.16100
C2177       C  0.81618206  0.87755842  0.31792427     0.13900
C2178       C  0.81372712  0.87817087  0.30475579     0.00900
C2179       C  0.82208336  0.87196849  0.29632953     0.15900
C2180       C  0.83278286  0.86547349  0.30096378     0.25300
C2181       C  0.83544649  0.86522760  0.31410090    -0.41100
C2182       C  0.82696952  0.87124827  0.32253765     0.32300
C2183       C  0.80267838  0.88558600  0.29985471     0.00900
F2184       F  0.82019905  0.87266985  0.28355134    -0.13400
F2185       F  0.82908945  0.87097035  0.33530000    -0.13900
C2186       C  0.80118003  0.89843602  0.30320150     0.15900
C2187       C  0.79063650  0.90538756  0.29896464     0.25300
C2188       C  0.78138304  0.89972707  0.29104592    -0.41000
C2189       C  0.78308149  0.88690421  0.28745692     0.32200
C2190       C  0.79354708  0.87990597  0.29189837     0.13900
F2191       F  0.81002110  0.90433539  0.31054922    -0.13400
F2192       F  0.77476788  0.88112244  0.27945086    -0.13900
F2193       F  0.78938662  0.91757546  0.30298614    -0.16200
F2194       F  0.79463102  0.86747408  0.28859619    -0.14700
F2195       F  0.80810134  0.88308274  0.32635264    -0.14700
F2196       F  0.84090654  0.86002652  0.29253341    -0.16100
C2197       C  0.88822086  0.82025276  0.30651779     0.13900
C2198       C  0.88067996  0.80950420  0.30399730     0.00900
C2199       C  0.86736898  0.81051152  0.30520344     0.15900
C2200       C  0.86177074  0.82195919  0.30916419     0.25300
C2201       C  0.86940617  0.83251385  0.31224669    -0.41100
C2202       C  0.88267910  0.83155482  0.31073672     0.32300
C2203       C  0.88682080  0.79726510  0.30040628     0.00900
F2204       F  0.85981098  0.80026844  0.30304416    -0.13400
F2205       F  0.89035038  0.84163510  0.31323436    -0.13900
C2206       C  0.89668180  0.79219730  0.30795145     0.15900
C2207       C  0.90298366  0.78107619  0.30429175     0.25300
C2208       C  0.89941962  0.77462499  0.29312236    -0.41000
C2209       C  0.88933311  0.77949567  0.28573999     0.32200
C2210       C  0.88316805  0.79075216  0.28929575     0.13900
F2211       F  0.90016761  0.79797716  0.31897330    -0.13400
F2212       F  0.88580065  0.77371403  0.27474108    -0.13900
F2213       F  0.91243480  0.77649947  0.31183356    -0.16200
F2214       F  0.87395338  0.79554261  0.28159588    -0.14700
F2215       F  0.90102275  0.81983680  0.30483719    -0.14700
F2216       F  0.84894709  0.82250337  0.31058027    -0.16100
C2217       C  0.86946974  0.64617436  0.23096458     0.13900
C2218       C  0.88265791  0.64770529  0.23259138     0.00900
C2219       C  0.89075591  0.63730792  0.23043699     0.15900
C2220       C  0.88584684  0.62570734  0.22625914     0.25300
C2221       C  0.87269412  0.62420970  0.22431889    -0.41100
C2222       C  0.86451118  0.63448782  0.22690258     0.32300
C2223       C  0.88816100  0.66011342  0.23634357     0.00900
F2224       F  0.90346402  0.63837967  0.23250472    -0.13400
F2225       F  0.85178322  0.63338648  0.22500054    -0.13900
C2226       C  0.88497599  0.66571628  0.24805220     0.15900
C2227       C  0.89110513  0.67683287  0.25203924     0.25300
C2228       C  0.90059710  0.68245620  0.24442389    -0.41000
C2229       C  0.90351456  0.67704075  0.23255463     0.32200
C2230       C  0.89726931  0.66602108  0.22850658     0.13900
F2231       F  0.87634168  0.66011946  0.25587784    -0.13400
F2232       F  0.91230502  0.68250041  0.22480939    -0.13900
F2233       F  0.88821927  0.68171751  0.26364832    -0.16200
F2234       F  0.90013966  0.66104797  0.21692760    -0.14700
F2235       F  0.86144784  0.65609864  0.23292402    -0.14700
F2236       F  0.89396204  0.61585118  0.22433315    -0.16100
C2237       C  0.79843901  0.57808366  0.24836029     0.13900
C2238       C  0.80438948  0.57431047  0.23696535     0.00900
C2239       C  0.79843277  0.56505853  0.22934317     0.15900
C2240       C  0.78697442  0.55947895  0.23316928     0.25300
C2241       C  0.78100914  0.56324331  0.24457081    -0.41100
C2242       C  0.78681960  0.57270528  0.25205879     0.32300
C2243       C  0.81682968  0.57986773  0.23305628     0.00900
F2244       F  0.80359298  0.56156237  0.21801827    -0.13400
F2245       F  0.78153715  0.57643218  0.26324034    -0.13900
C2246       C  0.82701844  0.57189285  0.22963643     0.15900
C2247       C  0.83851003  0.57703807  0.22533517     0.25300
C2248       C  0.84022672  0.59030529  0.22467746    -0.41000
C2249       C  0.83022623  0.59829465  0.22862887     0.32200
C2250       C  0.81858766  0.59313379  0.23256158     0.13900
F2251       F  0.82591854  0.55906067  0.23062239    -0.13400
F2252       F  0.83151336  0.61113828  0.22827164    -0.13900
F2253       F  0.84806034  0.56898377  0.22208527    -0.16200
F2254       F  0.80889471  0.60114551  0.23548015    -0.14700
F2255       F  0.80406096  0.58671505  0.25614681    -0.14700
F2256       F  0.78157364  0.55061810  0.22548842    -0.16100
C2257       C  0.87381634  0.88334942  0.35972785     0.13900
C2258       C  0.88690076  0.88112891  0.36117285     0.00900
C2259       C  0.89302227  0.87259253  0.35296511     0.15900
C2260       C  0.88615710  0.86629515  0.34346298     0.25300
C2261       C  0.87294374  0.86833290  0.34205391    -0.41100
C2262       C  0.86688741  0.87702733  0.35028917     0.32300
C2263       C  0.89413331  0.88775893  0.37125851     0.00900
F2264       F  0.90573065  0.87052356  0.35401889    -0.13400
F2265       F  0.85419709  0.87926147  0.34944835    -0.13900
C2266       C  0.89986678  0.88084694  0.38118189     0.15900
C2267       C  0.90625449  0.88718332  0.39100238     0.25300
C2268       C  0.90697863  0.90055748  0.39105736    -0.41000
C2269       C  0.90144331  0.90742167  0.38093938     0.32200
C2270       C  0.89508289  0.90106914  0.37114138     0.13900
F2271       F  0.89890824  0.86797341  0.38157111    -0.13400
F2272       F  0.90239198  0.92028486  0.38036889    -0.13900
F2273       F  0.91124374  0.88024748  0.40071280    -0.16200
F2274       F  0.88992273  0.90790943  0.36144587    -0.14700
F2275       F  0.86768238  0.89147246  0.36767335    -0.14700
F2276       F  0.89256673  0.85840629  0.33550964    -0.16100
C2277       C  0.84638418  0.06405714  0.42111427     0.13900
C2278       C  0.83827214  0.07237530  0.42768485     0.00900
C2279       C  0.83894245  0.07299058  0.44101066     0.15900
C2280       C  0.84752096  0.06532248  0.44772190     0.25300
C2281       C  0.85575594  0.05698055  0.44120066    -0.41100
C2282       C  0.85510047  0.05646916  0.42778667     0.32300
C2283       C  0.82901880  0.08035583  0.42066453     0.00900
F2284       F  0.83105659  0.08084395  0.44755332    -0.13400
F2285       F  0.86311028  0.04890628  0.42106475    -0.13900
C2286       C  0.81853112  0.07475117  0.41458324     0.15900
C2287       C  0.80980737  0.08227743  0.40787136     0.25300
C2288       C  0.81139862  0.09556316  0.40720982    -0.41000
C2289       C  0.82180652  0.10116756  0.41350161     0.32200
C2290       C  0.83057048  0.09361135  0.42012468     0.13900
F2291       F  0.81665053  0.06199501  0.41533282    -0.13400
F2292       F  0.82374638  0.11391860  0.41287102    -0.13900
F2293       F  0.79963340  0.07660772  0.40228385    -0.16200
F2294       F  0.84074095  0.09919656  0.42579858    -0.14700
F2295       F  0.84600030  0.06346064  0.40819709    -0.14700
F2296       F  0.84742048  0.06579080  0.46064000    -0.16100
C2297       C  0.88737205  0.12042966  0.59605794     0.13900
C2298       C  0.89436898  0.12994675  0.60229504     0.00900
C2299       C  0.90771017  0.12914682  0.60249063     0.15900
C2300       C  0.91395245  0.11901955  0.59651670     0.25300
C2301       C  0.90695267  0.10943379  0.59027337    -0.41100
C2302       C  0.89357421  0.11027333  0.59013283     0.32300
C2303       C  0.88770761  0.14069271  0.60855327     0.00900
F2304       F  0.91472245  0.13834417  0.60823577    -0.13400
F2305       F  0.88640336  0.10105745  0.58463854    -0.13900
C2306       C  0.88929918  0.14298285  0.62164082     0.15900
C2307       C  0.88284230  0.15300495  0.62756476     0.25300
C2308       C  0.87458513  0.16091549  0.62051220    -0.41000
C2309       C  0.87303036  0.15857147  0.60738618     0.32200
C2310       C  0.87956313  0.14860408  0.60147935     0.13900
F2311       F  0.89689022  0.13530761  0.62876275    -0.13400
F2312       F  0.86546557  0.16613679  0.60013617    -0.13900
F2313       F  0.88443547  0.15472371  0.64028320    -0.16200
F2314       F  0.87812392  0.14682016  0.58874957    -0.14700
F2315       F  0.87446184  0.12081320  0.59596321    -0.14700
F2316       F  0.92686188  0.11884294  0.59654627    -0.16100
C2317       C  0.05545553  0.83194625  0.43454550     0.13900
C2318       C  0.06877274  0.83270415  0.43371484     0.00900
C2319       C  0.07515403  0.84247102  0.44023065     0.15900
C2320       C  0.06834657  0.85137461  0.44739452     0.25300
C2321       C  0.05498286  0.85068659  0.44820355    -0.41100
C2322       C  0.04861805  0.84084619  0.44170627     0.32300
C2323       C  0.07602866  0.82326158  0.42614800     0.00900
F2324       F  0.08799863  0.84356796  0.43941018    -0.13400
F2325       F  0.03579382  0.83960380  0.44254206    -0.13900
C2326       C  0.07369329  0.82175615  0.41305673     0.15900
C2327       C  0.08062354  0.81289505  0.40591594     0.25300
C2328       C  0.09007737  0.80531997  0.41174529    -0.41000
C2329       C  0.09227499  0.80684018  0.42494358     0.32200
C2330       C  0.08536039  0.81572015  0.43201103     0.13900
F2331       F  0.06487896  0.82910735  0.40710700    -0.13400
F2332       F  0.10096578  0.79959017  0.43118079    -0.13900
F2333       F  0.07820728  0.81198295  0.39325031    -0.16200
F2334       F  0.08764174  0.81679705  0.44470018    -0.14700
F2335       F  0.04908590  0.82239791  0.42863049    -0.14700
F2336       F  0.07484868  0.86092974  0.45313899    -0.16100
C2337       C  0.13405446  0.91332363  0.60514015     0.13900
C2338       C  0.13371657  0.89999910  0.60559615     0.00900
C2339       C  0.12439450  0.89344619  0.59864532     0.15900
C2340       C  0.11543058  0.90013680  0.59140028     0.25300
C2341       C  0.11573613  0.91353824  0.59087845    -0.41100
C2342       C  0.12520226  0.92004380  0.59780326     0.32300
C2343       C  0.14317197  0.89292754  0.61325133     0.00900
F2344       F  0.12384120  0.88055028  0.59908146    -0.13400
F2345       F  0.12616969  0.93290118  0.59720288    -0.13900
C2346       C  0.14287341  0.89347396  0.62660407     0.15900
C2347       C  0.15182331  0.88675412  0.63385386     0.25300
C2348       C  0.16128847  0.87939290  0.62783615    -0.41000
C2349       C  0.16157984  0.87899544  0.61439933     0.32200
C2350       C  0.15257635  0.88566849  0.60720498     0.13900
F2351       F  0.13375887  0.90036886  0.63261360    -0.13400
F2352       F  0.17078607  0.87243760  0.60816097    -0.13900
F2353       F  0.15101704  0.88724386  0.64675300    -0.16200
F2354       F  0.15317882  0.88525545  0.59428881    -0.14700
F2355       F  0.14314746  0.91981662  0.61161936    -0.14700
F2356       F  0.10624123  0.89347666  0.58524533    -0.16100
C2357       C  0.07944455  0.07636568  0.64844359     0.13900
C2358       C  0.07302973  0.07999472  0.65959379     0.00900
C2359       C  0.06008070  0.07699038  0.66096582     0.15900
C2360       C  0.05366474  0.07032982  0.65139038     0.25300
C2361       C  0.06012682  0.06647932  0.64030913    -0.41100
C2362       C  0.07306327  0.06963476  0.63889046     0.32300
C2363       C  0.07987093  0.08677723  0.66987026     0.00900
F2364       F  0.05374712  0.08018848  0.67176773    -0.13400
F2365       F  0.07946670  0.06645686  0.62812778    -0.13900
C2366       C  0.07612578  0.09904744  0.67347767     0.15900
C2367       C  0.08243548  0.10539793  0.68332069     0.25300
C2368       C  0.09264525  0.09955350  0.68986850    -0.41000
C2369       C  0.09640922  0.08722371  0.68609281     0.32200
C2370       C  0.09008008  0.08093952  0.67620466     0.13900
F2371       F  0.06641363  0.10496715  0.66732989    -0.13400
F2372       F  0.10604547  0.08104894  0.69208503    -0.13900
F2373       F  0.07855099  0.11733865  0.68627831    -0.16200
F2374       F  0.09372608  0.06897448  0.67300940    -0.14700
F2375       F  0.09186343  0.07949378  0.64675508    -0.14700
F2376       F  0.04126960  0.06719759  0.65320772    -0.16100
C2377       C  0.91466781  0.33363159  0.92688522     0.13900
C2378       C  0.90143990  0.33213782  0.92795718     0.00900
C2379       C  0.89458415  0.34022671  0.93605902     0.15900
C2380       C  0.90079154  0.34978071  0.94287347     0.25300
C2381       C  0.91405865  0.35137467  0.94182318    -0.41100
C2382       C  0.92094353  0.34312900  0.93378877     0.32300
C2383       C  0.89461295  0.32240247  0.92043319     0.00900
F2384       F  0.88175387  0.33911777  0.93706842    -0.13400
F2385       F  0.93378312  0.34403671  0.93278981    -0.13900
C2386       C  0.88738170  0.31302695  0.92661786     0.15900
C2387       C  0.87996114  0.30454050  0.91958044     0.25300
C2388       C  0.87961061  0.30526677  0.90616623    -0.41000
C2389       C  0.88719915  0.31445345  0.89997766     0.32200
C2390       C  0.89461937  0.32294077  0.90706437     0.13900
F2391       F  0.88748480  0.31212622  0.93952776    -0.13400
F2392       F  0.88706471  0.31560000  0.88709227    -0.13900
F2393       F  0.87324057  0.29552296  0.92594378    -0.16200
F2394       F  0.90140213  0.33205014  0.90088757    -0.14700
F2395       F  0.92153031  0.32576956  0.91928238    -0.14700
F2396       F  0.89366951  0.35776812  0.95007930    -0.16100
C2397       C  0.81961337  0.38236879  0.10463836     0.13900
C2398       C  0.81875607  0.39569263  0.10496042     0.00900
C2399       C  0.80929076  0.40141482  0.11247455     0.15900
C2400       C  0.80091242  0.39390739  0.11966333     0.25300
C2401       C  0.80183453  0.38053022  0.11941458    -0.41100
C2402       C  0.81124049  0.37486717  0.11173664     0.32300
C2403       C  0.82820032  0.40345071  0.09788999     0.00900
F2404       F  0.80809491  0.41427005  0.11275772    -0.13400
F2405       F  0.81269559  0.36204141  0.11144479    -0.13900
C2406       C  0.82988047  0.40174983  0.08472205     0.15900
C2407       C  0.83990360  0.40775859  0.07833659     0.25300
C2408       C  0.84845958  0.41563416  0.08500442    -0.41000
C2409       C  0.84639431  0.41775223  0.09811236     0.32200
C2410       C  0.83635801  0.41173193  0.10446418     0.13900
F2411       F  0.82185510  0.39413077  0.07805957    -0.13400
F2412       F  0.85446585  0.42508594  0.10501581    -0.13900
F2413       F  0.84114059  0.40590239  0.06560516    -0.16200
F2414       F  0.83503012  0.41347229  0.11721061    -0.14700
F2415       F  0.82890031  0.37659728  0.09776452    -0.14700
F2416       F  0.79176385  0.39973265  0.12666825    -0.16100
C2417       C  0.91142111  0.56761190  0.16651730     0.13900
C2418       C  0.89806204  0.56757131  0.16660792     0.00900
C2419       C  0.89148216  0.56117182  0.15690462     0.15900
C2420       C  0.89814177  0.55499080  0.14718305     0.25300
C2421       C  0.91155147  0.55500489  0.14704158    -0.41100
C2422       C  0.91811539  0.56136427  0.15685104     0.32300
C2423       C  0.89096995  0.57434433  0.17672220     0.00900
F2424       F  0.87856701  0.56117253  0.15668506    -0.13400
F2425       F  0.93101662  0.56123441  0.15733347    -0.13900
C2426       C  0.89206548  0.58758576  0.17796564     0.15900
C2427       C  0.88524938  0.59404872  0.18739564     0.25300
C2428       C  0.87721614  0.58735824  0.19584426    -0.41000
C2429       C  0.87614875  0.57405214  0.19452685     0.32200
C2430       C  0.88295372  0.56763349  0.18505248     0.13900
F2431       F  0.89953730  0.59430467  0.16982532    -0.13400
F2432       F  0.86874748  0.56716024  0.20257414    -0.13900
F2433       F  0.88627781  0.60690618  0.18799074    -0.16200
F2434       F  0.88189103  0.55479725  0.18414210    -0.14700
F2435       F  0.91798715  0.57350918  0.17595418    -0.14700
F2436       F  0.89141944  0.54936347  0.13769764    -0.16100
C2437       C  0.09466610  0.39029906  0.85787639     0.13900
C2438       C  0.08143198  0.38917972  0.85909097     0.00900
C2439       C  0.07465566  0.38145905  0.85056900     0.15900
C2440       C  0.08103142  0.37494310  0.84089084     0.25300
C2441       C  0.09432409  0.37605826  0.83959992    -0.41100
C2442       C  0.10107824  0.38379183  0.84822628     0.32300
C2443       C  0.07470290  0.39588312  0.86940922     0.00900
F2444       F  0.06181717  0.38040625  0.85152146    -0.13400
F2445       F  0.11393813  0.38480103  0.84755946    -0.13900
C2446       C  0.07393571  0.40921084  0.86942113     0.15900
C2447       C  0.06750179  0.41551976  0.87921452     0.25300
C2448       C  0.06175301  0.40855560  0.88913052    -0.41000
C2449       C  0.06259771  0.39520046  0.88908781     0.32200
C2450       C  0.06903350  0.38892796  0.87930544     0.13900
F2451       F  0.07923299  0.41607476  0.85981976    -0.13400
F2452       F  0.05756627  0.38821976  0.89874030    -0.13900
F2453       F  0.06658123  0.42839288  0.87879569    -0.16200
F2454       F  0.06997759  0.37605214  0.87961394    -0.14700
F2455       F  0.10140460  0.39749136  0.86622763    -0.14700
F2456       F  0.07414098  0.36782514  0.83260064    -0.16100
C2457       C  0.15072032  0.58682297  0.92667159     0.13900
C2458       C  0.14344875  0.57771141  0.92012770     0.00900
C2459       C  0.14555382  0.57586695  0.90704293     0.15900
C2460       C  0.15470212  0.58308947  0.90059112     0.25300
C2461       C  0.16183177  0.59241273  0.90709041    -0.41100
C2462       C  0.15973525  0.59417056  0.92021952     0.32300
C2463       C  0.13345234  0.57044891  0.92695068     0.00900
F2464       F  0.13847737  0.56733475  0.90041417    -0.13400
F2465       F  0.16659189  0.60281796  0.92692489    -0.13900
C2466       C  0.12387393  0.57695462  0.93361418     0.15900
C2467       C  0.11473190  0.57026345  0.94056138     0.25300
C2468       C  0.11488392  0.55688633  0.94089534    -0.41000
C2469       C  0.12427973  0.55034333  0.93392944     0.32200
C2470       C  0.13351519  0.55707591  0.92706263     0.13900
F2471       F  0.12326827  0.58985037  0.93324986    -0.13400
F2472       F  0.12484554  0.53744645  0.93412933    -0.13900
F2473       F  0.10552511  0.57691967  0.94668355    -0.16200
F2474       F  0.14275014  0.55053365  0.92084410    -0.14700
F2475       F  0.14918622  0.58850729  0.93940375    -0.14700
F2476       F  0.15626317  0.58121800  0.88788995    -0.16100
C2477       C  0.07434057  0.62603435  0.09878035     0.13900
C2478       C  0.06725133  0.63562537  0.10482979     0.00900
C2479       C  0.05389823  0.63520557  0.10415310     0.15900
C2480       C  0.04777317  0.62557337  0.09726519     0.25300
C2481       C  0.05489882  0.61624280  0.09080174    -0.41100
C2482       C  0.06824610  0.61648804  0.09179513     0.32300
C2483       C  0.07386762  0.64623930  0.11144013     0.00900
F2484       F  0.04678415  0.64438241  0.10979263    -0.13400
F2485       F  0.07542718  0.60729510  0.08627652    -0.13900
C2486       C  0.08278832  0.65368910  0.10481843     0.15900
C2487       C  0.08949209  0.66334950  0.11103377     0.25300
C2488       C  0.08743051  0.66582904  0.12407061    -0.41000
C2489       C  0.07814196  0.65863206  0.13058866     0.32200
C2490       C  0.07148113  0.64890964  0.12434231     0.13900
F2491       F  0.08494698  0.65166691  0.09222757    -0.13400
F2492       F  0.07579275  0.66064776  0.14314154    -0.13900
F2493       F  0.09788659  0.67038250  0.10417687    -0.16200
F2494       F  0.06300928  0.64180540  0.13103713    -0.14700
F2495       F  0.08722020  0.62584390  0.09974777    -0.14700
F2496       F  0.03488177  0.62569170  0.09652904    -0.16100
C2497       C  0.33363526  0.91084749  0.93397047     0.13900
C2498       C  0.33537176  0.89781501  0.93172975     0.00900
C2499       C  0.34610333  0.89164824  0.93675360     0.15900
C2500       C  0.35502851  0.89845004  0.94391538     0.25300
C2501       C  0.35333666  0.91155125  0.94615647    -0.41100
C2502       C  0.34252966  0.91766809  0.94112745     0.32300
C2503       C  0.32575744  0.89061002  0.92445552     0.00900
F2504       F  0.34800850  0.87906826  0.93455700    -0.13400
F2505       F  0.34033172  0.93016178  0.94349622    -0.13900
C2506       C  0.32384923  0.89305537  0.91144898     0.15900
C2507       C  0.31441706  0.88653327  0.90468756     0.25300
C2508       C  0.30665325  0.87748421  0.91087760    -0.41000
C2509       C  0.30870508  0.87503822  0.92394461     0.32200
C2510       C  0.31818970  0.88152083  0.93062829     0.13900
F2511       F  0.33122016  0.90169945  0.90527951    -0.13400
F2512       F  0.30129817  0.86665908  0.93041957    -0.13900
F2513       F  0.31305707  0.88895671  0.89204899    -0.16200
F2514       F  0.31976206  0.87918684  0.94326011    -0.14700
F2515       F  0.32313155  0.91688860  0.92947869    -0.14700
F2516       F  0.36548657  0.89228235  0.94833237    -0.16100
C2517       C  0.40937621  0.83889777  0.10895251     0.13900
C2518       C  0.39604539  0.83867693  0.10791851     0.00900
C2519       C  0.38993249  0.84772871  0.10019829     0.15900
C2520       C  0.39702359  0.85666744  0.09337239     0.25300
C2521       C  0.41037951  0.85676616  0.09419332    -0.41100
C2522       C  0.41649103  0.84789801  0.10218465     0.32300
C2523       C  0.38850081  0.82887111  0.11466874     0.00900
F2524       F  0.37704385  0.84801975  0.09941506    -0.13400
F2525       F  0.42937091  0.84762431  0.10310839    -0.13900
C2526       C  0.38913209  0.82774972  0.12798059     0.15900
C2527       C  0.38204891  0.81842640  0.13431684     0.25300
C2528       C  0.37416642  0.81001303  0.12744102    -0.41000
C2529       C  0.37348899  0.81126272  0.11407977     0.32200
C2530       C  0.38060830  0.82057954  0.10777989     0.13900
F2531       F  0.39645655  0.83584859  0.13488050    -0.13400
F2532       F  0.36625568  0.80323572  0.10701057    -0.13900
F2533       F  0.38274926  0.81782969  0.14722144    -0.16200
F2534       F  0.38003942  0.82130925  0.09487161    -0.14700
F2535       F  0.41552957  0.83015414  0.11622940    -0.14700
F2536       F  0.39077395  0.86545329  0.08624036    -0.16100
C2537       C  0.56277206  0.89278594  0.16140414     0.13900
C2538       C  0.57603093  0.89345156  0.16265664     0.00900
C2539       C  0.58318604  0.90020225  0.15361247     0.15900
C2540       C  0.57715284  0.90604242  0.14328294     0.25300
C2541       C  0.56384099  0.90531428  0.14193602    -0.41100
C2542       C  0.55670638  0.89868174  0.15115908     0.32300
C2543       C  0.58235926  0.88691758  0.17333772     0.00900
F2544       F  0.59604352  0.90089830  0.15465064    -0.13400
F2545       F  0.54381911  0.89822949  0.15055031    -0.13900
C2546       C  0.58151662  0.87365084  0.17448748     0.15900
C2547       C  0.58732081  0.86739993  0.18469643     0.25300
C2548       C  0.59409321  0.87435089  0.19394238    -0.41000
C2549       C  0.59480443  0.88770200  0.19277756     0.32200
C2550       C  0.58903267  0.89390596  0.18252457     0.13900
F2551       F  0.57523749  0.86673301  0.16556144    -0.13400
F2552       F  0.60077152  0.89483575  0.20173506    -0.13900
F2553       F  0.58655770  0.85452898  0.18531517    -0.16200
F2554       F  0.58971590  0.90678024  0.18170507    -0.14700
F2555       F  0.55567389  0.88661242  0.17027999    -0.14700
F2556       F  0.58438631  0.91208251  0.13443262    -0.16100
C2557       C  0.38676908  0.06552349  0.87842403     0.13900
C2558       C  0.39377989  0.07068590  0.86825640     0.00900
C2559       C  0.40711860  0.06974407  0.86841637     0.15900
C2560       C  0.41337072  0.06408907  0.87874243     0.25300
C2561       C  0.40638183  0.05911179  0.88903552    -0.41100
C2562       C  0.39300299  0.05974820  0.88869642     0.32300
C2563       C  0.38724901  0.07764158  0.85783486     0.00900
F2564       F  0.41409244  0.07425221  0.85850070    -0.13400
F2565       F  0.38594565  0.05528185  0.89856611    -0.13900
C2566       C  0.39037680  0.09038303  0.85534145     0.15900
C2567       C  0.38406241  0.09718546  0.84580679     0.25300
C2568       C  0.37432073  0.09141862  0.83856987    -0.41000
C2569       C  0.37133655  0.07853449  0.84099906     0.32200
C2570       C  0.37773089  0.07175086  0.85053827     0.13900
F2571       F  0.39933154  0.09640552  0.86244527    -0.13400
F2572       F  0.36230002  0.07238463  0.83411631    -0.13900
F2573       F  0.38736022  0.10953357  0.84395046    -0.16200
F2574       F  0.37469534  0.05935929  0.85257196    -0.14700
F2575       F  0.37388999  0.06649924  0.87864167    -0.14700
F2576       F  0.42625285  0.06324869  0.87852910    -0.16100
C2577       C  0.57740484  0.12143102  0.93652317     0.13900
C2578       C  0.57120832  0.13204404  0.93117830     0.00900
C2579       C  0.55797941  0.13330839  0.93285992     0.15900
C2580       C  0.55109651  0.12409363  0.93962048     0.25300
C2581       C  0.55732825  0.11355329  0.94504120    -0.41100
C2582       C  0.57055898  0.11234724  0.94348280     0.32300
C2583       C  0.57853237  0.14161670  0.92368921     0.00900
F2584       F  0.55173860  0.14360332  0.92815967    -0.13400
F2585       F  0.57681614  0.10211792  0.94830081    -0.13900
C2586       C  0.57495859  0.14464763  0.91115003     0.15900
C2587       C  0.58207726  0.15329872  0.90392218     0.25300
C2588       C  0.59308088  0.15915003  0.90903039    -0.41000
C2589       C  0.59653775  0.15614514  0.92169683     0.32200
C2590       C  0.58932276  0.14754431  0.92891460     0.13900
F2591       F  0.56470918  0.13895508  0.90572181    -0.13400
F2592       F  0.60689208  0.16150745  0.92723169    -0.13900
F2593       F  0.57815773  0.15576079  0.89184066    -0.16200
F2594       F  0.59282030  0.14511792  0.94113509    -0.14700
F2595       F  0.59006629  0.11966202  0.93469691    -0.14700
F2596       F  0.53837661  0.12568140  0.94119043    -0.16100
C2597       C  0.62181391  0.06462723  0.11535170     0.13900
C2598       C  0.63025319  0.07249281  0.10855306     0.00900
C2599       C  0.62859161  0.07394904  0.09534243     0.15900
C2600       C  0.61862134  0.06779469  0.08904680     0.25300
C2601       C  0.61011898  0.05996323  0.09581789    -0.41100
C2602       C  0.61186261  0.05838499  0.10904140     0.32300
C2603       C  0.64079146  0.07923867  0.11512783     0.00900
F2604       F  0.63683005  0.08115065  0.08846026    -0.13400
F2605       F  0.60370566  0.05112591  0.11595713    -0.13900
C2606       C  0.65000388  0.07244090  0.12206825     0.15900
C2607       C  0.66020274  0.07881449  0.12780877     0.25300
C2608       C  0.66143008  0.09211289  0.12664559    -0.41000
C2609       C  0.65217246  0.09889358  0.11972507     0.32200
C2610       C  0.64191408  0.09253024  0.11412205     0.13900
F2611       F  0.64931018  0.05957816  0.12301228    -0.13400
F2612       F  0.65281812  0.11175014  0.11869028    -0.13900
F2613       F  0.66907727  0.07191637  0.13419939    -0.16200
F2614       F  0.63291763  0.09939569  0.10787200    -0.14700
F2615       F  0.62301754  0.06323224  0.12816050    -0.14700
F2616       F  0.61756936  0.06918871  0.07623155    -0.16100
C2617       C  0.40676396  0.62874626  0.43103763     0.13900
C2618       C  0.39356126  0.62868329  0.42887332     0.00900
C2619       C  0.38638729  0.61806217  0.43276187     0.15900
C2620       C  0.39228225  0.60778615  0.43885910     0.25300
C2621       C  0.40549470  0.60782788  0.44092065    -0.41100
C2622       C  0.41269036  0.61837087  0.43689270     0.32300
C2623       C  0.38729677  0.63970054  0.42261208     0.00900
F2624       F  0.37370050  0.61751337  0.43039509    -0.13400
F2625       F  0.42542498  0.61883684  0.43900384    -0.13900
C2626       C  0.39156917  0.64410560  0.41071902     0.15900
C2627       C  0.38571947  0.65450830  0.40481964     0.25300
C2628       C  0.37530562  0.66070403  0.41062429    -0.41000
C2629       C  0.37110644  0.65626888  0.42262163     0.32200
C2630       C  0.37706847  0.64592431  0.42853453     0.13900
F2631       F  0.40127283  0.63813753  0.40463533    -0.13400
F2632       F  0.36133420  0.66200592  0.42880768    -0.13900
F2633       F  0.39017572  0.65828794  0.39328017    -0.16200
F2634       F  0.37298021  0.64212497  0.44020940    -0.14700
F2635       F  0.41390095  0.63900142  0.42774516    -0.14700
F2636       F  0.38512712  0.59761840  0.44237280    -0.16100
C2637       C  0.56198233  0.57762233  0.37500929     0.13900
C2638       C  0.57532070  0.57775310  0.37584749     0.00900
C2639       C  0.58133433  0.57095945  0.38566471     0.15900
C2640       C  0.57415761  0.56400097  0.39443561     0.25300
C2641       C  0.56079236  0.56366997  0.39353193    -0.41100
C2642       C  0.55476719  0.57063109  0.38376185     0.32300
C2643       C  0.58299748  0.58468106  0.36628693     0.00900
F2644       F  0.59419602  0.57119071  0.38683985    -0.13400
F2645       F  0.54193682  0.57029296  0.38234128    -0.13900
C2646       C  0.58151819  0.59784205  0.36463308     0.15900
C2647       C  0.58851399  0.60429054  0.35531875     0.25300
C2648       C  0.59709090  0.59765785  0.34740748    -0.41000
C2649       C  0.59879097  0.58449837  0.34936516     0.32200
C2650       C  0.59177630  0.57809129  0.35868497     0.13900
F2651       F  0.57334578  0.60447123  0.37212040    -0.13400
F2652       F  0.60686530  0.57767088  0.34195848    -0.13900
F2653       F  0.58695498  0.61705690  0.35416152    -0.16200
F2654       F  0.59324079  0.56532498  0.36000129    -0.14700
F2655       F  0.55596584  0.58394706  0.36545735    -0.14700
F2656       F  0.58032071  0.55784087  0.40398854    -0.16100
C2657       C  0.63659361  0.41465779  0.43407113     0.13900
C2658       C  0.63612732  0.40135061  0.43314419     0.00900
C2659       C  0.62652837  0.39464329  0.43955169     0.15900
C2660       C  0.61736041  0.40115047  0.44664201     0.25300
C2661       C  0.61765267  0.41451894  0.44744841    -0.41100
C2662       C  0.62743705  0.42120643  0.44118434     0.32300
C2663       C  0.64558310  0.39440445  0.42542255     0.00900
F2664       F  0.62585837  0.38178064  0.43865711    -0.13400
F2665       F  0.62829758  0.43405153  0.44215664    -0.13900
C2666       C  0.65494326  0.38699509  0.43139113     0.15900
C2667       C  0.66372143  0.38014679  0.42411351     0.25300
C2668       C  0.66329312  0.38060653  0.41069106    -0.41000
C2669       C  0.65382407  0.38802912  0.40474779     0.32200
C2670       C  0.64505363  0.39487045  0.41207046     0.13900
F2671       F  0.65564798  0.38651569  0.44430175    -0.13400
F2672       F  0.65278313  0.38835078  0.39185685    -0.13900
F2673       F  0.67281418  0.37330923  0.43023779    -0.16200
F2674       F  0.63583908  0.40173035  0.40614204    -0.14700
F2675       F  0.64600197  0.42127654  0.42818326    -0.14700
F2676       F  0.60791091  0.39437290  0.45226927    -0.16100
C2677       C  0.57029039  0.31456804  0.62083188     0.13900
C2678       C  0.57620466  0.32179184  0.61127407     0.00900
C2679       C  0.58930137  0.32040986  0.60919868     0.15900
C2680       C  0.59642417  0.31188872  0.61654554     0.25300
C2681       C  0.59054037  0.30445462  0.62610532    -0.41100
C2682       C  0.57734774  0.30596283  0.62816504     0.32300
C2683       C  0.56878292  0.33101142  0.60365035     0.00900
F2684       F  0.59525303  0.32753565  0.60019112    -0.13400
F2685       F  0.57114257  0.29896397  0.63708674    -0.13900
C2686       C  0.56332295  0.34165841  0.60955077     0.15900
C2687       C  0.55654407  0.35056626  0.60235771     0.25300
C2688       C  0.55520926  0.34902015  0.58910816    -0.41000
C2689       C  0.56062941  0.33832796  0.58320757     0.32200
C2690       C  0.56733346  0.32935585  0.59044376     0.13900
F2691       F  0.56486731  0.34359725  0.62224503    -0.13400
F2692       F  0.55915607  0.33641368  0.57050324    -0.13900
F2693       F  0.55169577  0.36095493  0.60828878    -0.16200
F2694       F  0.57228031  0.31895958  0.58460943    -0.14700
F2695       F  0.55759344  0.31570552  0.62291354    -0.14700
F2696       F  0.60913326  0.31112974  0.61438338    -0.16100
C2697       C  0.35012570  0.57908928  0.59841422     0.13900
C2698       C  0.34133746  0.57343116  0.60675359     0.00900
C2699       C  0.34125188  0.56012264  0.60810643     0.15900
C2700       C  0.34979177  0.55260667  0.60118744     0.25300
C2701       C  0.35856648  0.55827731  0.59278117    -0.41100
C2702       C  0.35866142  0.57160930  0.59151022     0.32300
C2703       C  0.33239873  0.58149047  0.61410112     0.00900
F2704       F  0.33272560  0.55438251  0.61594788    -0.13400
F2705       F  0.36732943  0.57749495  0.58394700    -0.13900
C2706       C  0.32405939  0.58982426  0.60776558     0.15900
C2707       C  0.31590395  0.59775153  0.61467595     0.25300
C2708       C  0.31585320  0.59742391  0.62809011    -0.41000
C2709       C  0.32421800  0.58902557  0.63441046     0.32200
C2710       C  0.33240681  0.58115878  0.62747720     0.13900
F2711       F  0.32362789  0.59008531  0.59483743    -0.13400
F2712       F  0.32468725  0.58859608  0.64733366    -0.13900
F2713       F  0.30775761  0.60541660  0.60820016    -0.16200
F2714       F  0.34055882  0.57339809  0.63384484    -0.14700
F2715       F  0.35066326  0.59193648  0.59720201    -0.14700
F2716       F  0.34922769  0.53976834  0.60247046    -0.16100
C2717       C  0.40243023  0.41265581  0.67204790     0.13900
C2718       C  0.40094497  0.39938640  0.67190695     0.00900
C2719       C  0.40617495  0.39230879  0.66184937     0.15900
C2720       C  0.41281573  0.39839135  0.65207918     0.25300
C2721       C  0.41422463  0.41168798  0.65213588    -0.41100
C2722       C  0.40898199  0.41877342  0.66221118     0.32300
C2723       C  0.39380882  0.39283954  0.68210127     0.00900
F2724       F  0.40455370  0.37950545  0.66132343    -0.13400
F2725       F  0.41049282  0.43158419  0.66273360    -0.13900
C2726       C  0.38100966  0.39586478  0.68441108     0.15900
C2727       C  0.37396744  0.38890493  0.69330604     0.25300
C2728       C  0.37961296  0.37872037  0.69999663    -0.41000
C2729       C  0.39258996  0.37602442  0.69792826     0.32200
C2730       C  0.39960354  0.38305518  0.68910811     0.13900
F2731       F  0.37517043  0.40521883  0.67765487    -0.13400
F2732       F  0.39857990  0.36661176  0.70445853    -0.13900
F2733       F  0.36149396  0.39182789  0.69492752    -0.16200
F2734       F  0.41209627  0.38027283  0.68735414    -0.14700
F2735       F  0.39772027  0.41965838  0.68182511    -0.14700
F2736       F  0.41744879  0.39129949  0.64233279    -0.16100
loop_ 
_geom_bond_atom_site_label_1 
_geom_bond_atom_site_label_2 
_geom_bond_distance 
_geom_bond_site_symmetry_2 
_ccdc_geom_bond_type 
N1            N2   1.322       .  A
N1            C5   1.344       .  A
N1           Cu9   2.065       .  S
N2            C3   1.342       .  A
N2           Cu8   2.063       .  S
C3            C4   1.380       .  A
C3            H6   1.082       .  S
C4            C5   1.382       .  A
C4           C62   1.465       .  S
C5            H7   1.082       .  S
Cu8          N11   2.063       .  S
Cu9          N19   2.065       .  S
Cu10         N12   2.067       .  S
Cu10         N18   2.067       .  S
N11          N12   1.321       .  A
N11          C15   1.343       .  A
N12          C13   1.344       .  A
C13          C14   1.383       .  A
C13          H16   1.082       .  S
C14          C15   1.381       .  A
C14          C38   1.467       .  S
C15          H17   1.082       .  S
N18          N19   1.322       .  A
N18          C22   1.343       .  A
N19          C20   1.343       .  A
C20          C21   1.383       .  A
C20          H23   1.081       .  S
C21          C22   1.383       .  A
C21        C2721   1.475       .  S
C22          H24   1.081       .  S
N25          N26   1.322       .  A
N25          C29   1.343       .  A
N25         Cu33   2.065       .  S
N26          C27   1.345       .  A
N26         Cu32   2.072       .  S
C27          C28   1.383       .  A
C27          H30   1.082       .  S
C28          C29   1.380       .  A
C28         C134   1.467       .  S
C29          H31   1.082       .  S
Cu32         N35   2.072       .  S
Cu33         N43   2.066       .  S
Cu34         N36   2.068       .  S
Cu34         N42   2.068       .  S
N35          N36   1.322       .  A
N35          C39   1.345       .  A
N36          C37   1.343       .  A
C37          C38   1.381       .  A
C37          H40   1.082       .  S
C38          C39   1.383       .  A
C39          H41   1.082       .  S
N42          N43   1.320       .  A
N42          C46   1.344       .  A
N43          C44   1.343       .  A
C44          C45   1.386       .  A
C44          H47   1.081       .  S
C45          C46   1.386       .  A
C45        C2701   1.482       .  S
C46          H48   1.082       .  S
N49          N50   1.323       .  A
N49          C53   1.346       .  A
N49         Cu57   2.084       .  S
N50          C51   1.343       .  A
N50         Cu56   2.062       .  S
C51          C52   1.380       .  A
C51          H54   1.082       .  S
C52          C53   1.385       .  A
C52          C76   1.470       .  S
C53          H55   1.082       .  S
Cu56         N59   2.061       .  S
Cu57         N67   2.084       .  S
Cu58         N60   2.060       .  S
Cu58         N66   2.060       .  S
N59          N60   1.320       .  A
N59          C63   1.343       .  A
N60          C61   1.343       .  A
C61          C62   1.381       .  A
C61          H64   1.082       .  S
C62          C63   1.382       .  A
C63          H65   1.082       .  S
N66          N67   1.322       .  A
N66          C70   1.342       .  A
N67          C68   1.347       .  A
C68          C69   1.386       .  A
C68          H71   1.082       .  S
C69          C70   1.381       .  A
C69        C2688   1.476       .  S
C70          H72   1.082       .  S
N73          N74   1.322       .  A
N73          C77   1.343       .  A
N73         Cu81   2.064       .  S
N74          C75   1.346       .  A
N74         Cu80   2.079       .  S
C75          C76   1.385       .  A
C75          H78   1.082       .  S
C76          C77   1.380       .  A
C77          H79   1.082       .  S
Cu80         N83   2.079       .  S
Cu81         N91   2.064       .  S
Cu82         N84   2.071       .  S
Cu82         N90   2.072       .  S
N83          N84   1.323       .  A
N83          C87   1.345       .  A
N84          C85   1.344       .  A
C85          C86   1.381       .  A
C85          H88   1.082       .  S
C86          C87   1.384       .  A
C86         C110   1.470       .  S
C87          H89   1.082       .  S
N90          N91   1.320       .  A
N90          C94   1.345       .  A
N91          C92   1.343       .  A
C92          C93   1.385       .  A
C92          H95   1.082       .  S
C93          C94   1.386       .  A
C93        C2661   1.481       .  S
C94          H96   1.082       .  S
N97          N98   1.322       .  A
N97         C101   1.344       .  A
N97        Cu105   2.069       .  S
N98          C99   1.342       .  A
N98        Cu104   2.058       .  S
C99         C100   1.379       .  A
C99         H102   1.082       .  S
C100        C101   1.383       .  A
C100        C124   1.464       .  S
C101        H103   1.082       .  S
Cu104       N107   2.059       .  S
Cu105       N115   2.070       .  S
Cu106       N108   2.075       .  S
Cu106       N114   2.075       .  S
N107        N108   1.321       .  A
N107        C111   1.343       .  A
N108        C109   1.346       .  A
C109        C110   1.385       .  A
C109        H112   1.082       .  S
C110        C111   1.381       .  A
C111        H113   1.082       .  S
N114        N115   1.322       .  A
N114        C118   1.343       .  A
N115        C116   1.345       .  A
C116        C117   1.386       .  A
C116        H119   1.082       .  S
C117        C118   1.385       .  A
C117       C2641   1.482       .  S
C118        H120   1.081       .  S
N121        N122   1.321       .  A
N121        C125   1.343       .  A
N121       Cu129   2.062       .  S
N122        C123   1.343       .  A
N122       Cu128   2.062       .  S
C123        C124   1.381       .  A
C123        H126   1.082       .  S
C124        C125   1.381       .  A
C125        H127   1.082       .  S
Cu128       N131   2.062       .  S
Cu129       N139   2.063       .  S
Cu130       N132   2.075       .  S
Cu130       N138   2.075       .  S
N131        N132   1.322       .  A
N131        C135   1.344       .  A
N132        C133   1.344       .  A
C133        C134   1.383       .  A
C133        H136   1.082       .  S
C134        C135   1.380       .  A
C135        H137   1.082       .  S
N138        N139   1.321       .  A
N138        C142   1.346       .  A
N139        C140   1.343       .  A
C140        C141   1.382       .  A
C140        H143   1.082       .  S
C141        C142   1.386       .  A
C141       C2621   1.478       .  S
C142        H144   1.082       .  S
N145        N146   1.322       .  A
N145        C149   1.344   1_545  A
N145       Cu153   2.067       .  S
N146        C147   1.343   1_545  A
N146       Cu152   2.066       .  S
C147        C148   1.382       .  A
C147        H150   1.082       .  S
C148        C149   1.381       .  A
C148        C230   1.465       .  S
C149        H151   1.082       .  S
Cu152       N155   2.066       .  S
Cu153       N163   2.068       .  S
Cu154       N156   2.081       .  S
Cu154       N162   2.081       .  S
N155        N156   1.323       .  A
N155        C159   1.344       .  A
N156        C157   1.346       .  A
C157        C158   1.384       .  A
C157        H160   1.082       .  S
C158        C159   1.381       .  A
C158        C172   1.471       .  S
C159        H161   1.082       .  S
N162        N163   1.321       .  A
N162        C166   1.345       .  A
N163        C164   1.345       .  A
C164        C165   1.385       .  A
C164        H167   1.082       .  S
C165        C166   1.388       .  A
C165       C2601   1.484       .  S
C166        H168   1.082       .  S
N169        N170   1.323       .  A
N169        C173   1.345   1_556  A
N169       Cu177   2.077       .  S
N170        C171   1.345   1_556  A
N170       Cu176   2.074       .  S
C171        C172   1.383       .  A
C171        H174   1.082       .  S
C172        C173   1.383       .  A
C173        H175   1.082       .  S
Cu176       N179   2.075       .  S
Cu177       N187   2.077       .  S
Cu178       N180   2.079       .  S
Cu178       N186   2.079       .  S
N179        N180   1.322       .  A
N179        C183   1.345       .  A
N180        C181   1.346       .  A
C181        C182   1.384       .  A
C181        H184   1.082       .  S
C182        C183   1.384       .  A
C182        C206   1.474       .  S
C183        H185   1.082       .  S
N186        N187   1.322       .  A
N186        C190   1.346       .  A
N187        C188   1.346       .  A
C188        C189   1.386       .  A
C188        H191   1.082       .  S
C189        C190   1.385       .  A
C189       C2581   1.482       .  S
C190        H192   1.082       .  S
N193        N194   1.321       .  A
N193        C197   1.346       .  A
N193       Cu201   2.071       .  S
N194        C195   1.345       .  A
N194       Cu200   2.074       .  S
C195        C196   1.384   1_545  A
C195        H198   1.082   1_545  S
C196        C197   1.384   1_565  A
C196        C278   1.473       .  S
C197        H199   1.082   1_545  S
Cu200       N203   2.074       .  S
Cu201       N211   2.071       .  S
Cu202       N204   2.084       .  S
Cu202       N210   2.084       .  S
N203        N204   1.323       .  A
N203        C207   1.345       .  A
N204        C205   1.347       .  A
C205        C206   1.385       .  A
C205        H208   1.082       .  S
C206        C207   1.382       .  A
C207        H209   1.082       .  S
N210        N211   1.323       .  A
N210        C214   1.347       .  A
N211        C212   1.344       .  A
C212        C213   1.383       .  A
C212        H215   1.082       .  S
C213        C214   1.387       .  A
C213       C2561   1.482       .  S
C214        H216   1.082       .  S
N217        N218   1.321       .  A
N217        C221   1.344       .  A
N217       Cu225   2.062       .  S
N218        C219   1.341       .  A
N218       Cu224   2.054       .  S
C219        C220   1.378       .  A
C219        H222   1.082       .  S
C220        C221   1.382       .  A
C220        C244   1.461       .  S
C221        H223   1.082       .  S
Cu224       N227   2.055       .  S
Cu225       N235   2.063       .  S
Cu226       N228   2.066       .  S
Cu226       N234   2.066       .  S
N227        N228   1.321       .  A
N227        C231   1.342       .  A
N228        C229   1.344       .  A
C229        C230   1.383       .  A
C229        H232   1.082       .  S
C230        C231   1.380       .  A
C231        H233   1.082       .  S
N234        N235   1.322       .  A
N234        C238   1.342       .  A
N235        C236   1.342       .  A
C236        C237   1.384       .  A
C236        H239   1.081       .  S
C237        C238   1.384       .  A
C237       C2541   1.477       .  S
C238        H240   1.082       .  S
N241        N242   1.322       .  A
N241        C245   1.343       .  A
N241       Cu249   2.058       .  S
N242        C243   1.342       .  A
N242       Cu248   2.063       .  S
C243        C244   1.380       .  A
C243        H246   1.082       .  S
C244        C245   1.379       .  A
C245        H247   1.082       .  S
Cu248       N251   2.063       .  S
Cu249       N259   2.058       .  S
Cu250       N252   2.075       .  S
Cu250       N258   2.076       .  S
N251        N252   1.322       .  A
N251        C255   1.344       .  A
N252        C253   1.345       .  A
C253        C254   1.384       .  A
C253        H256   1.082       .  S
C254        C255   1.381       .  A
C254        C268   1.469       .  S
C255        H257   1.082       .  S
N258        N259   1.321       .  A
N258        C262   1.344       .  A
N259        C260   1.343       .  A
C260        C261   1.383       .  A
C260        H263   1.082       .  S
C261        C262   1.386       .  A
C261       C2521   1.478       .  S
C262        H264   1.082       .  S
N265        N266   1.322       .  A
N265        C269   1.344   1_556  A
N265       Cu273   2.067       .  S
N266        C267   1.345   1_556  A
N266       Cu272   2.073       .  S
C267        C268   1.383       .  A
C267        H270   1.082       .  S
C268        C269   1.381       .  A
C269        H271   1.082       .  S
Cu272       N275   2.074       .  S
Cu273       N283   2.068       .  S
Cu274       N276   2.079       .  S
Cu274       N282   2.079       .  S
N275        N276   1.323       .  A
N275        C279   1.345       .  A
N276        C277   1.346       .  A
C277        C278   1.384       .  A
C277        H280   1.082       .  S
C278        C279   1.383       .  A
C279        H281   1.082       .  S
N282        N283   1.322       .  A
N282        C286   1.345       .  A
N283        C284   1.344       .  A
C284        C285   1.384       .  A
C284        H287   1.082       .  S
C285        C286   1.386       .  A
C285       C2501   1.481       .  S
C286        H288   1.082       .  S
N289        N290   1.324       .  A
N289        C293   1.348       .  A
N289       Cu297   2.088       .  S
N290        C291   1.344       .  A
N290       Cu296   2.076       .  S
C291        C292   1.382       .  A
C291        H294   1.082       .  S
C292        C293   1.385       .  A
C292        C316   1.474       .  S
C293        H295   1.082       .  S
Cu296       N299   2.075       .  S
Cu297       N307   2.088       .  S
Cu298       N300   2.066       .  S
Cu298       N306   2.066       .  S
N299        N300   1.322       .  A
N299        C303   1.346   1_455  A
N300        C301   1.343   1_455  A
C301        C302   1.381       .  A
C301        H304   1.082       .  S
C302        C303   1.385       .  A
C302        C364   1.470       .  S
C303        H305   1.082       .  S
N306        N307   1.322       .  A
N306        C310   1.345       .  A
N307        C308   1.347       .  A
C308        C309   1.389       .  A
C308        H311   1.081       .  S
C309        C310   1.384       .  A
C309       C2481   1.486       .  S
C310        H312   1.082       .  S
N313        N314   1.322       .  A
N313        C317   1.347   1_556  A
N313       Cu321   2.080       .  S
N314        C315   1.344   1_556  A
N314       Cu320   2.074       .  S
C315        C316   1.383       .  A
C315        H318   1.082       .  S
C316        C317   1.385       .  A
C317        H319   1.082       .  S
Cu320       N323   2.073       .  S
Cu321       N331   2.080       .  S
Cu322       N324   2.067       .  S
Cu322       N330   2.067       .  S
N323        N324   1.322       .  A
N323        C327   1.345       .  A
N324        C325   1.344       .  A
C325        C326   1.382       .  A
C325        H328   1.082       .  S
C326        C327   1.383       .  A
C326        C350   1.469       .  S
C327        H329   1.082       .  S
N330        N331   1.322       .  A
N330        C334   1.345       .  A
N331        C332   1.344       .  A
C332        C333   1.387       .  A
C332        H335   1.082       .  S
C333        C334   1.384       .  A
C333       C2468   1.482       .  S
C334        H336   1.082       .  S
N337        N338   1.322       .  A
N337        C341   1.344       .  A
N337       Cu345   2.071       .  S
N338        C339   1.345       .  A
N338       Cu344   2.073       .  S
C339        C340   1.383   1_455  A
C339        H342   1.082   1_455  S
C340        C341   1.382   1_655  A
C340        C412   1.470       .  S
C341        H343   1.082   1_455  S
Cu344       N347   2.073       .  S
Cu345       N355   2.071       .  S
Cu346       N348   2.068       .  S
Cu346       N354   2.068       .  S
N347        N348   1.322       .  A
N347        C351   1.346       .  A
N348        C349   1.343       .  A
C349        C350   1.381       .  A
C349        H352   1.082       .  S
C350        C351   1.383       .  A
C351        H353   1.082       .  S
N354        N355   1.321       .  A
N354        C358   1.345       .  A
N355        C356   1.344       .  A
C356        C357   1.384       .  A
C356        H359   1.082       .  S
C357        C358   1.384       .  A
C357       C2448   1.477       .  S
C358        H360   1.082       .  S
N361        N362   1.323       .  A
N361        C365   1.345       .  A
N361       Cu369   2.077       .  S
N362        C363   1.345       .  A
N362       Cu368   2.071       .  S
C363        C364   1.382       .  A
C363        H366   1.082       .  S
C364        C365   1.383       .  A
C365        H367   1.082       .  S
Cu368       N371   2.070       .  S
Cu369       N379   2.077       .  S
Cu370       N372   2.069       .  S
Cu370       N378   2.069       .  S
N371        N372   1.322       .  A
N371        C375   1.345       .  A
N372        C373   1.344       .  A
C373        C374   1.382       .  A
C373        H376   1.082       .  S
C374        C375   1.383       .  A
C374        C388   1.469       .  S
C375        H377   1.082       .  S
N378        N379   1.321       .  A
N378        C382   1.344       .  A
N379        C380   1.346       .  A
C380        C381   1.388       .  A
C380        H383   1.081       .  S
C381        C382   1.386       .  A
C381       C2421   1.485       .  S
C382        H384   1.081       .  S
N385        N386   1.321       .  A
N385        C389   1.344       .  A
N385       Cu393   2.067       .  S
N386        C387   1.345       .  A
N386       Cu392   2.069       .  S
C387        C388   1.383       .  A
C387        H390   1.082       .  S
C388        C389   1.382       .  A
C389        H391   1.082       .  S
Cu392       N395   2.070       .  S
Cu393       N403   2.067       .  S
Cu394       N396   2.079       .  S
Cu394       N402   2.079       .  S
N395        N396   1.323       .  A
N395        C399   1.343       .  A
N396        C397   1.346       .  A
C397        C398   1.383       .  A
C397        H400   1.082       .  S
C398        C399   1.381       .  A
C398        C422   1.470       .  S
C399        H401   1.082       .  S
N402        N403   1.321       .  A
N402        C406   1.346       .  A
N403        C404   1.343       .  A
C404        C405   1.386       .  A
C404        H407   1.081       .  S
C405        C406   1.390       .  A
C405       C2408   1.487       .  S
C406        H408   1.081       .  S
N409        N410   1.321       .  A
N409        C413   1.344       .  A
N409       Cu417   2.068       .  S
N410        C411   1.345       .  A
N410       Cu416   2.071       .  S
C411        C412   1.383       .  A
C411        H414   1.082       .  S
C412        C413   1.383       .  A
C413        H415   1.082       .  S
Cu416       N419   2.071       .  S
Cu417       N427   2.068       .  S
Cu418       N420   2.072       .  S
Cu418       N426   2.072       .  S
N419        N420   1.322       .  A
N419        C423   1.344   1_556  A
N420        C421   1.345   1_556  A
C421        C422   1.383       .  A
C421        H424   1.082       .  S
C422        C423   1.382       .  A
C423        H425   1.082       .  S
N426        N427   1.321       .  A
N426        C430   1.343       .  A
N427        C428   1.344       .  A
C428        C429   1.386       .  A
C428        H431   1.081       .  S
C429        C430   1.387       .  A
C429       C2381   1.484       .  S
C430        H432   1.081       .  S
N433        N434   1.322       .  A
N433        C437   1.346   1_455  A
N433       Cu441   2.080       .  S
N434        C435   1.345   1_455  A
N434       Cu440   2.065       .  S
C435        C436   1.382       .  A
C435        H438   1.082       .  S
C436        C437   1.385       .  A
C436        C518   1.472       .  S
C437        H439   1.082       .  S
Cu440       N443   2.065       .  S
Cu441       N451   2.080       .  S
Cu442       N444   2.076       .  S
Cu442       N450   2.076       .  S
N443        N444   1.322       .  A
N443        C447   1.342       .  A
N444        C445   1.347       .  A
C445        C446   1.384   1_545  A
C445        H448   1.082       .  S
C446        C447   1.381   1_565  A
C446        C460   1.470       .  S
C447        H449   1.082   1_545  S
N450        N451   1.323       .  A
N450        C454   1.345       .  A
N451        C452   1.346       .  A
C452        C453   1.385       .  A
C452        H455   1.082       .  S
C453        C454   1.384       .  A
C453       C2361   1.480       .  S
C454        H456   1.082       .  S
N457        N458   1.322       .  A
N457        C461   1.346       .  A
N457       Cu465   2.073       .  S
N458        C459   1.343       .  A
N458       Cu464   2.070       .  S
C459        C460   1.382       .  A
C459        H462   1.082       .  S
C460        C461   1.383       .  A
C461        H463   1.082       .  S
Cu464       N467   2.070       .  S
Cu465       N475   2.074       .  S
Cu466       N468   2.071       .  S
Cu466       N474   2.072       .  S
N467        N468   1.322       .  A
N467        C471   1.345       .  A
N468        C469   1.344       .  A
C469        C470   1.383       .  A
C469        H472   1.082       .  S
C470        C471   1.383       .  A
C470        C484   1.470       .  S
C471        H473   1.082       .  S
N474        N475   1.321       .  A
N474        C478   1.345       .  A
N475        C476   1.344       .  A
C476        C477   1.387       .  A
C476        H479   1.081       .  S
C477        C478   1.387       .  A
C477       C2341   1.485       .  S
C478        H480   1.081       .  S
N481        N482   1.323       .  A
N481        C485   1.344       .  A
N481       Cu489   2.072       .  S
N482        C483   1.346       .  A
N482       Cu488   2.076       .  S
C483        C484   1.383       .  A
C483        H486   1.082       .  S
C484        C485   1.382       .  A
C485        H487   1.082       .  S
Cu488       N491   2.076       .  S
Cu489       N499   2.072       .  S
Cu490       N492   2.073       .  S
Cu490       N498   2.073       .  S
N491        N492   1.323       .  A
N491        C495   1.346   1_455  A
N492        C493   1.344   1_455  A
C493        C494   1.382       .  A
C493        H496   1.082       .  S
C494        C495   1.384       .  A
C494        C566   1.471       .  S
C495        H497   1.082       .  S
N498        N499   1.320       .  A
N498        C502   1.345       .  A
N499        C500   1.344       .  A
C500        C501   1.387       .  A
C500        H503   1.081       .  S
C501        C502   1.387       .  A
C501       C2321   1.485       .  S
C502        H504   1.082       .  S
N505        N506   1.323       .  A
N505        C509   1.345       .  A
N505       Cu513   2.073       .  S
N506        C507   1.347       .  A
N506       Cu512   2.085       .  S
C507        C508   1.385       .  A
C507        H510   1.082       .  S
C508        C509   1.382       .  A
C508        C542   1.473       .  S
C509        H511   1.082       .  S
Cu512       N515   2.085       .  S
Cu513       N523   2.073       .  S
Cu514       N516   2.069       .  S
Cu514       N522   2.069       .  S
N515        N516   1.323       .  A
N515        C519   1.347       .  A
N516        C517   1.344       .  A
C517        C518   1.381       .  A
C517        H520   1.082       .  S
C518        C519   1.385       .  A
C519        H521   1.082       .  S
N522        N523   1.320       .  A
N522        C526   1.344       .  A
N523        C524   1.344       .  A
C524        C525   1.388       .  A
C524        H527   1.081       .  S
C525        C526   1.387       .  A
C525       C2301   1.486       .  S
C526        H528   1.081       .  S
N529        N530   1.323   1_545  A
N529        C533   1.348   1_545  A
N529       Cu537   2.080       .  S
N530        C531   1.342       .  A
N530       Cu536   2.068   1_565  S
C531        C532   1.380       .  A
C531        H534   1.082       .  S
C532        C533   1.385       .  A
C532        C556   1.470       .  S
C533        H535   1.082       .  S
Cu536       N539   2.068       .  S
Cu537       N547   2.081       .  S
Cu538       N540   2.079       .  S
Cu538       N546   2.079       .  S
N539        N540   1.321       .  A
N539        C543   1.346       .  A
N540        C541   1.346       .  A
C541        C542   1.385       .  A
C541        H544   1.082       .  S
C542        C543   1.383       .  A
C543        H545   1.082       .  S
N546        N547   1.322       .  A
N546        C550   1.344       .  A
N547        C548   1.347       .  A
C548        C549   1.389       .  A
C548        H551   1.081       .  S
C549        C550   1.387       .  A
C549       C2281   1.488       .  S
C550        H552   1.081       .  S
N553        N554   1.322       .  A
N553        C557   1.347       .  A
N553       Cu561   2.071       .  S
N554        C555   1.342       .  A
N554       Cu560   2.069       .  S
C555        C556   1.382       .  A
C555        H558   1.082       .  S
C556        C557   1.384       .  A
C557        H559   1.082       .  S
Cu560       N563   2.070       .  S
Cu561       N571   2.071       .  S
Cu562       N564   2.076       .  S
Cu562       N570   2.076       .  S
N563        N564   1.322       .  A
N563        C567   1.345       .  A
N564        C565   1.344       .  A
C565        C566   1.384       .  A
C565        H568   1.082       .  S
C566        C567   1.383       .  A
C567        H569   1.082       .  S
N570        N571   1.322       .  A
N570        C574   1.346       .  A
N571        C572   1.343       .  A
C572        C573   1.384       .  A
C572        H575   1.082       .  S
C573        C574   1.386       .  A
C573       C2268   1.481       .  S
C574        H576   1.082       .  S
C577        N578   1.359       .  A
C577        N582   1.358       .  A
C577       C2221   1.478       .  S
N578        C579   1.360       .  A
C579        N580   1.360       .  A
C579       C2248   1.485       .  S
N580        C581   1.359       .  A
C581        N582   1.358       .  A
C581       C2428   1.488       .  S
N583        N584   1.322       .  A
N583        C587   1.343       .  A
N583       Cu591   2.065       .  S
N584        C585   1.347       .  A
N584       Cu590   2.085       .  S
C585        C586   1.387       .  A
C585        H588   1.082       .  S
C586        C587   1.381       .  A
C586       C2228   1.478       .  S
C587        H589   1.082       .  S
Cu590       N593   2.085       .  S
Cu591       N601   2.066       .  S
Cu592       N594   2.077       .  S
Cu592       N600   2.077       .  S
N593        N594   1.324       .  A
N593        C597   1.347       .  A
N594        C595   1.346       .  A
C595        C596   1.383       .  A
C595        H598   1.082       .  S
C596        C597   1.384       .  A
C596       C1262   1.474       .  S
C597        H599   1.082       .  S
N600        N601   1.320       .  A
N600        C604   1.345       .  A
N601        C602   1.344       .  A
C602        C603   1.385       .  A
C602        H605   1.082       .  S
C603        C604   1.387       .  A
C603       C2208   1.483       .  S
C604        H606   1.082       .  S
C607        N608   1.358       .  A
C607        N612   1.362       .  A
C607       C2201   1.484       .  S
N608        C609   1.356       .  A
C609        N610   1.358       .  A
C609       C2261   1.489       .  S
N610        C611   1.359       .  A
C611        N612   1.363       .  A
C611       C2181   1.483       .  S
C613        N614   1.359       .  A
C613        N618   1.362       .  A
C613       C2161   1.482       .  S
N614        C615   1.356       .  A
C615        N616   1.355       .  A
C615       C2648   1.484       .  S
N616        C617   1.357       .  A
C617        N618   1.362       .  A
C617       C2141   1.494       .  S
C619        N620   1.356       .  A
C619        N624   1.362       .  A
C619       C2121   1.494       .  S
N620        C621   1.355       .  A
C621        N622   1.357       .  A
C621       C2548   1.480       .  S
N622        C623   1.359       .  A
C623        N624   1.363       .  A
C623       C2101   1.489       .  S
N625        N626   1.322       .  A
N625        C629   1.344       .  A
N625       Cu633   2.068       .  S
N626        C627   1.344       .  A
N626       Cu632   2.076       .  S
C627        C628   1.386       .  A
C627        H630   1.082       .  S
C628        C629   1.384       .  A
C628       C2148   1.481       .  S
C629        H631   1.082       .  S
Cu632       N635   2.076       .  S
Cu633       N643   2.068       .  S
Cu634       N636   2.073       .  S
Cu634       N642   2.074       .  S
N635        N636   1.322       .  A
N635        C639   1.345       .  A
N636        C637   1.345       .  A
C637        C638   1.382       .  A
C637        H640   1.082       .  S
C638        C639   1.383       .  A
C638       C1286   1.471       .  S
C639        H641   1.082       .  S
N642        N643   1.322       .  A
N642        C646   1.344       .  A
N643        C644   1.345       .  A
C644        C645   1.383       .  A
C644        H647   1.082       .  S
C645        C646   1.384       .  A
C645       C2108   1.477       .  S
C646        H648   1.082       .  S
N649        N650   1.322       .  A
N649        C653   1.347       .  A
N649       Cu657   2.087       .  S
N650        C651   1.345       .  A
N650       Cu656   2.070       .  S
C651        C652   1.385       .  A
C651        H654   1.082       .  S
C652        C653   1.389       .  A
C652       C2128   1.485       .  S
C653        H655   1.082       .  S
Cu656       N659   2.070       .  S
Cu657       N667   2.088       .  S
Cu658       N660   2.083       .  S
Cu658       N666   2.083       .  S
N659        N660   1.322       .  A
N659        C663   1.344       .  A
N660        C661   1.348       .  A
C661        C662   1.385       .  A
C661        H664   1.082       .  S
C662        C663   1.381       .  A
C662        C782   1.471       .  S
C663        H665   1.082       .  S
N666        N667   1.322       .  A
N666        C670   1.345       .  A
N667        C668   1.347       .  A
C668        C669   1.391       .  A
C668        H671   1.081       .  S
C669        C670   1.389       .  A
C669       C2188   1.495       .  S
C670        H672   1.081       .  S
N673        N674   1.322       .  A
N673        C677   1.347       .  A
N673       Cu681   2.086       .  S
N674        C675   1.343       .  A
N674       Cu680   2.069       .  S
C675        C676   1.386       .  A
C675        H678   1.081       .  S
C676        C677   1.390       .  A
C676       C2168   1.488       .  S
C677        H679   1.081       .  S
Cu680       N683   2.068       .  S
Cu681       N691   2.086       .  S
Cu682       N684   2.066       .  S
Cu682       N690   2.067       .  S
N683        N684   1.321       .  A
N683        C687   1.344       .  A
N684        C685   1.344       .  A
C685        C686   1.382       .  A
C685        H688   1.082       .  S
C686        C687   1.383       .  A
C686        C734   1.467       .  S
C687        H689   1.082       .  S
N690        N691   1.322       .  A
N690        C694   1.343       .  A
N691        C692   1.347       .  A
C692        C693   1.389       .  A
C692        H695   1.081       .  S
C693        C694   1.385       .  A
C693       C2241   1.486       .  S
C694        H696   1.081       .  S
C697        N698   1.361       .  A
C697        N702   1.362       .  A
C697       C2081   1.497       .  S
N698        C699   1.359       .  A
C699        N700   1.357       .  A
C699       C2288   1.481       .  S
N700        C701   1.359       .  A
C701        N702   1.361       .  A
C701       C2061   1.488       .  S
C703        N704   1.362       .  A
C703        N708   1.360       .  A
C703       C2041   1.482       .  S
N704        C705   1.362       .  A
C705        N706   1.358       .  A
C705       C2028   1.486       .  S
N706        C707   1.357       .  A
C707        N708   1.359       .  A
C707       C2608   1.483       .  S
C709        N710   1.361       .  A
C709        N714   1.360       .  A
C709       C1988   1.484       .  S
N710        C711   1.360       .  A
C711        N712   1.359       .  A
C711       C2008   1.489       .  S
N712        C713   1.357       .  A
C713        N714   1.358       .  A
C713       C2668   1.484       .  S
C715        N716   1.357       .  A
C715        N720   1.358       .  A
C715       C1941   1.480       .  S
N716        C717   1.358       .  A
C717        N718   1.361       .  A
C717       C1961   1.480       .  S
N718        C719   1.359       .  A
C719        N720   1.358       .  A
C719       C2401   1.485       .  S
N721        N722   1.323       .  A
N721        C725   1.347       .  A
N721       Cu729   2.077       .  S
N722        C723   1.343       .  A
N722       Cu728   2.070       .  S
C723        C724   1.383       .  A
C723        H726   1.082       .  S
C724        C725   1.385       .  A
C724       C1968   1.477       .  S
C725        H727   1.082       .  S
Cu728       N731   2.070       .  S
Cu729       N739   2.078       .  S
Cu730       N732   2.066       .  S
Cu730       N738   2.067       .  S
N731        N732   1.322       .  A
N731        C735   1.345       .  A
N732        C733   1.343       .  A
C733        C734   1.381       .  A
C733        H736   1.082       .  S
C734        C735   1.383       .  A
C735        H737   1.082       .  S
N738        N739   1.321       .  A
N738        C742   1.344       .  A
N739        C740   1.346       .  A
C740        C741   1.387       .  A
C740        H743   1.082       .  S
C741        C742   1.384       .  A
C741       C1981   1.481       .  S
C742        H744   1.082       .  S
N745        N746   1.323       .  A
N745        C749   1.347       .  A
N745       Cu753   2.080       .  S
N746        C747   1.345       .  A
N746       Cu752   2.085       .  S
C747        C748   1.385       .  A
C747        H750   1.082       .  S
C748        C749   1.385       .  A
C748       C1948   1.481       .  S
C749        H751   1.082       .  S
Cu752       N755   2.085       .  S
Cu753       N763   2.081       .  S
Cu754       N756   2.077       .  S
Cu754       N762   2.077       .  S
N755        N756   1.322       .  A
N755        C759   1.348       .  A
N756        C757   1.346       .  A
C757        C758   1.384       .  A
C757        H760   1.082       .  S
C758        C759   1.386       .  A
C758        C842   1.476       .  S
C759        H761   1.082       .  S
N762        N763   1.322       .  A
N762        C766   1.344       .  A
N763        C764   1.347       .  A
C764        C765   1.388       .  A
C764        H767   1.082       .  S
C765        C766   1.386       .  A
C765       C2048   1.486       .  S
C766        H768   1.082       .  S
N769        N770   1.322       .  A
N769        C773   1.347       .  A
N769       Cu777   2.084       .  S
N770        C771   1.345       .  A
N770       Cu776   2.078       .  S
C771        C772   1.387       .  A
C771        H774   1.082       .  S
C772        C773   1.388       .  A
C772       C2068   1.488       .  S
C773        H775   1.082       .  S
Cu776       N779   2.078       .  S
Cu777       N787   2.084       .  S
Cu778       N780   2.080       .  S
Cu778       N786   2.081       .  S
N779        N780   1.323       .  A
N779        C783   1.347       .  A
N780        C781   1.345   1_545  A
C781        C782   1.383       .  A
C781        H784   1.082       .  S
C782        C783   1.383   1_565  A
C783        H785   1.082   1_545  S
N786        N787   1.322       .  A
N786        C790   1.346       .  A
N787        C788   1.347       .  A
C788        C789   1.386       .  A
C788        H791   1.082       .  S
C789        C790   1.387       .  A
C789       C2021   1.485       .  S
C790        H792   1.082       .  S
N793        N794   1.321       .  A
N793        C797   1.347       .  A
N793       Cu801   2.077       .  S
N794        C795   1.343       .  A
N794       Cu800   2.072       .  S
C795        C796   1.386       .  A
C795        H798   1.081       .  S
C796        C797   1.388       .  A
C796       C2088   1.487       .  S
C797        H799   1.082       .  S
Cu800       N803   2.072       .  S
Cu801       N811   2.077       .  S
Cu802       N804   2.080       .  S
Cu802       N810   2.080       .  S
N803        N804   1.322       .  A
N803        C807   1.344       .  A
N804        C805   1.348       .  A
C805        C806   1.385       .  A
C805        H808   1.082       .  S
C806        C807   1.382       .  A
C806        C878   1.472       .  S
C807        H809   1.082       .  S
N810        N811   1.324       .  A
N810        C814   1.346       .  A
N811        C812   1.345       .  A
C812        C813   1.383       .  A
C812        H815   1.082       .  S
C813        C814   1.384       .  A
C813       C2001   1.478       .  S
C814        H816   1.082       .  S
C817        N818   1.357       .  A
C817        N822   1.361       .  A
C817       C1921   1.482       .  S
N818        C819   1.357       .  A
C819        N820   1.361       .  A
C819       C2588   1.499       .  S
N820        C821   1.364       .  A
C821        N822   1.363       .  A
C821       C1901   1.498       .  S
C823        N824   1.359       .  A
C823        N828   1.359       .  A
C823       C1861   1.494       .  S
N824        C825   1.358       .  A
C825        N826   1.358       .  A
C825       C1881   1.474       .  S
N826        C827   1.359       .  A
C827        N828   1.360       .  A
C827       C2388   1.485       .  S
N829        N830   1.323       .  A
N829        C833   1.348       .  A
N829       Cu837   2.087       .  S
N830        C831   1.344       .  A
N830       Cu836   2.077       .  S
C831        C832   1.384       .  A
C831        H834   1.082       .  S
C832        C833   1.387       .  A
C832       C1868   1.484       .  S
C833        H835   1.082       .  S
Cu836       N839   2.076       .  S
Cu837       N847   2.088       .  S
Cu838       N840   2.086       .  S
Cu838       N846   2.087       .  S
N839        N840   1.322       .  A
N839        C843   1.347   1_556  A
N840        C841   1.347   1_556  A
C841        C842   1.386       .  A
C841        H844   1.082       .  S
C842        C843   1.384       .  A
C843        H845   1.082       .  S
N846        N847   1.323       .  A
N846        C850   1.346       .  A
N847        C848   1.348       .  A
C848        C849   1.389       .  A
C848        H851   1.081       .  S
C849        C850   1.388       .  A
C849       C1908   1.492       .  S
C850        H852   1.081       .  S
C853        N854   1.358       .  A
C853        N858   1.360       .  A
C853       C1841   1.479       .  S
N854        C855   1.357       .  A
C855        N856   1.358       .  A
C855       C1821   1.480       .  S
N856        C857   1.357       .  A
C857        N858   1.359       .  A
C857       C2681   1.491       .  S
C859        N860   1.361       .  A
C859        N864   1.360       .  A
C859       C1781   1.494       .  S
N860        C861   1.361       .  A
C861        N862   1.359       .  A
C861       C1801   1.496       .  S
N862        C863   1.357       .  A
C863        N864   1.359       .  A
C863       C2308   1.487       .  S
N865        N866   1.323       .  A
N865        C869   1.346       .  A
N865       Cu873   2.072       .  S
N866        C867   1.344       .  A
N866       Cu872   2.079       .  S
C867        C868   1.384       .  A
C867        H870   1.082       .  S
C868        C869   1.383       .  A
C868       C1828   1.477       .  S
C869        H871   1.082       .  S
Cu872       N875   2.078       .  S
Cu873       N883   2.072       .  S
Cu874       N876   2.072       .  S
Cu874       N882   2.073       .  S
N875        N876   1.322       .  A
N875        C879   1.348       .  A
N876        C877   1.343       .  A
C877        C878   1.382       .  A
C877        H880   1.082       .  S
C878        C879   1.385       .  A
C879        H881   1.082       .  S
N882        N883   1.321       .  A
N882        C886   1.344       .  A
N883        C884   1.346       .  A
C884        C885   1.386       .  A
C884        H887   1.082       .  S
C885        C886   1.386       .  A
C885       C1788   1.484       .  S
C886        H888   1.082       .  S
N889        N890   1.322       .  A
N889        C893   1.347       .  A
N889       Cu897   2.077       .  S
N890        C891   1.342       .  A
N890       Cu896   2.064       .  S
C891        C892   1.382       .  A
C891        H894   1.082       .  S
C892        C893   1.386       .  A
C892       C1888   1.478       .  S
C893        H895   1.082       .  S
Cu896       N899   2.063       .  S
Cu897       N907   2.077       .  S
Cu898       N900   2.075       .  S
Cu898       N906   2.076       .  S
N899        N900   1.321       .  A
N899        C903   1.344       .  A
N900        C901   1.345       .  A
C901        C902   1.384       .  A
C901        H904   1.082       .  S
C902        C903   1.381       .  A
C902       C1022   1.468       .  S
C903        H905   1.082       .  S
N906        N907   1.323       .  A
N906        C910   1.345       .  A
N907        C908   1.346       .  A
C908        C909   1.385       .  A
C908        H911   1.081       .  S
C909        C910   1.384       .  A
C909       C1808   1.480       .  S
C910        H912   1.081       .  S
N913        N914   1.319       .  A
N913        C917   1.345       .  A
N913       Cu921   2.085       .  S
N914        C915   1.343       .  A
N914       Cu920   2.058       .  S
C915        C916   1.388       .  A
C915        H918   1.080       .  S
C916        C917   1.393       .  A
C916       C1928   1.493       .  S
C917        H919   1.080       .  S
Cu920       N923   2.057       .  S
Cu921       N931   2.085       .  S
Cu922       N924   2.072       .  S
Cu922       N930   2.073       .  S
N923        N924   1.322       .  A
N923        C927   1.341       .  A
N924        C925   1.346       .  A
C925        C926   1.383       .  A
C925        H928   1.082       .  S
C926        C927   1.378       .  A
C926        C974   1.463       .  S
C927        H929   1.082       .  S
N930        N931   1.323       .  A
N930        C934   1.343       .  A
N931        C932   1.348       .  A
C932        C933   1.386       .  A
C932        H935   1.082       .  S
C933        C934   1.383       .  A
C933       C1848   1.480       .  S
C934        H936   1.082       .  S
C937        N938   1.357       .  A
C937        N942   1.361       .  A
C937       C1761   1.490       .  S
N938        C939   1.355       .  A
C939        N940   1.356       .  A
C939       C2441   1.479       .  S
N940        C941   1.358       .  A
C941        N942   1.360       .  A
C941       C1741   1.477       .  S
C943        N944   1.358       .  A
C943        N948   1.356       .  A
C943       C1701   1.482       .  S
N944        C945   1.359       .  A
C945        N946   1.361       .  A
C945       C2368   1.493       .  S
N946        C947   1.360       .  A
C947        N948   1.356       .  A
C947       C1721   1.484       .  S
C949        N950   1.357       .  A
C949        N954   1.358       .  A
C949       C1688   1.474       .  S
N950        C951   1.357       .  A
C951        N952   1.357       .  A
C951       C2568   1.490       .  S
N952        C953   1.358       .  A
C953        N954   1.360       .  A
C953       C1668   1.476       .  S
C955        N956   1.358       .  A
C955        N960   1.358       .  A
C955       C1641   1.475       .  S
N956        C957   1.359       .  A
C957        N958   1.357       .  A
C957       C1621   1.488       .  S
N958        C959   1.356       .  A
C959        N960   1.356       .  A
C959       C2728   1.482       .  S
N961        N962   1.321       .  A
N961        C965   1.346       .  A
N961       Cu969   2.078       .  S
N962        C963   1.340       .  A
N962       Cu968   2.054       .  S
C963        C964   1.381       .  A
C963        H966   1.082       .  S
C964        C965   1.387       .  A
C964       C1628   1.477       .  S
C965        H967   1.082       .  S
Cu968       N971   2.054       .  S
Cu969       N979   2.078       .  S
Cu970       N972   2.066       .  S
Cu970       N978   2.067       .  S
N971        N972   1.320       .  A
N971        C975   1.343       .  A
N972        C973   1.343       .  A
C973        C974   1.382       .  A
C973        H976   1.082       .  S
C974        C975   1.380       .  A
C975        H977   1.082       .  S
N978        N979   1.321       .  A
N978        C982   1.342       .  A
N979        C980   1.345       .  A
C980        C981   1.391       .  A
C980        H983   1.080       .  S
C981        C982   1.388       .  A
C981       C1681   1.491       .  S
C982        H984   1.081       .  S
N985        N986   1.323       .  A
N985        C989   1.345       .  A
N985       Cu993   2.069       .  S
N986        C987   1.344       .  A
N986       Cu992   2.077       .  S
C987        C988   1.384       .  A
C987        H990   1.082       .  S
C988        C989   1.382       .  A
C988       C1728   1.475       .  S
C989        H991   1.082       .  S
Cu992       N995   2.077       .  S
Cu993      N1003   2.069       .  S
Cu994       N996   2.071       .  S
Cu994      N1002   2.072       .  S
N995        N996   1.322       .  A
N995        C999   1.347       .  A
N996        C997   1.345       .  A
C997        C998   1.383   1_545  A
C997       H1000   1.082       .  S
C998        C999   1.384   1_565  A
C998       C1142   1.471       .  S
C999       H1001   1.082       .  S
N1002      N1003   1.322       .  A
N1002      C1006   1.343       .  A
N1003      C1004   1.345       .  A
C1004      C1005   1.384       .  A
C1004      H1007   1.082       .  S
C1005      C1006   1.384       .  A
C1005      C1661   1.478       .  S
C1006      H1008   1.082       .  S
N1009      N1010   1.320       .  A
N1009      C1013   1.345       .  A
N1009     Cu1017   2.073       .  S
N1010      C1011   1.341       .  A
N1010     Cu1016   2.064       .  S
C1011      C1012   1.387       .  A
C1011      H1014   1.081       .  S
C1012      C1013   1.390       .  A
C1012      C1708   1.488       .  S
C1013      H1015   1.081       .  S
Cu1016     N1019   2.064       .  S
Cu1017     N1027   2.073       .  S
Cu1018     N1020   2.077       .  S
Cu1018     N1026   2.077       .  S
N1019      N1020   1.322       .  A
N1019      C1023   1.344   1_455  A
N1020      C1021   1.345   1_455  A
C1021      C1022   1.384       .  A
C1021      H1024   1.082       .  S
C1022      C1023   1.381       .  A
C1023      H1025   1.082       .  S
N1026      N1027   1.321       .  A
N1026      C1030   1.345       .  A
N1027      C1028   1.344       .  A
C1028      C1029   1.387       .  A
C1028      H1031   1.081       .  S
C1029      C1030   1.388       .  A
C1029      C1748   1.486       .  S
C1030      H1032   1.081       .  S
N1033      N1034   1.322       .  A
N1033      C1037   1.344       .  A
N1033     Cu1041   2.063       .  S
N1034      C1035   1.343       .  A
N1034     Cu1040   2.080       .  S
C1035      C1036   1.386       .  A
C1035      H1038   1.081       .  S
C1036      C1037   1.384       .  A
C1036      C1768   1.481       .  S
C1037      H1039   1.082       .  S
Cu1040     N1043   2.080       .  S
Cu1041     N1051   2.063       .  S
Cu1042     N1044   2.082       .  S
Cu1042     N1050   2.082       .  S
N1043      N1044   1.322       .  A
N1043      C1047   1.346       .  A
N1044      C1045   1.348       .  A
C1045      C1046   1.385       .  A
C1045      H1048   1.082       .  S
C1046      C1047   1.385       .  A
C1046      C1088   1.477       .  S
C1047      H1049   1.082       .  S
N1050      N1051   1.322       .  A
N1050      C1054   1.343       .  A
N1051      C1052   1.345       .  A
C1052      C1053   1.383       .  A
C1052      H1055   1.082       .  S
C1053      C1054   1.385       .  A
C1053      C1648   1.477       .  S
C1054      H1056   1.082       .  S
C1057      N1058   1.360       .  A
C1057      N1062   1.363       .  A
C1057      C1588   1.494       .  S
N1058      C1059   1.357       .  A
C1059      N1060   1.355       .  A
C1059      C2508   1.485       .  S
N1060      C1061   1.356       .  A
C1061      N1062   1.361       .  A
C1061      C1608   1.480       .  S
C1063      N1064   1.356       .  A
C1063      N1068   1.365       .  A
C1063      C1541   1.498       .  S
N1064      C1065   1.353       .  A
C1065      N1066   1.358       .  A
C1065      C2708   1.485       .  S
N1066      C1067   1.362       .  A
C1067      N1068   1.366       .  A
C1067      C1568   1.503       .  S
C1069      N1070   1.357       .  A
C1069      N1074   1.364       .  A
C1069      C1501   1.485       .  S
N1070      C1071   1.355       .  A
C1071      N1072   1.357       .  A
C1071      C2461   1.483       .  S
N1072      C1073   1.360       .  A
C1073      N1074   1.365       .  A
C1073      C1521   1.495       .  S
N1075      N1076   1.322       .  A
N1075      C1079   1.346       .  A
N1075     Cu1083   2.078       .  S
N1076      C1077   1.345       .  A
N1076     Cu1082   2.086       .  S
C1077      C1078   1.389       .  A
C1077      H1080   1.081       .  S
C1078      C1079   1.388       .  A
C1078      C1548   1.491       .  S
C1079      H1081   1.081       .  S
Cu1082     N1085   2.086       .  S
Cu1083     N1093   2.078       .  S
Cu1084     N1086   2.080       .  S
Cu1084     N1092   2.081       .  S
N1085      N1086   1.322       .  A
N1085      C1089   1.348       .  A
N1086      C1087   1.346       .  A
C1087      C1088   1.384       .  A
C1087      H1090   1.082       .  S
C1088      C1089   1.386       .  A
C1089      H1091   1.082       .  S
N1092      N1093   1.322       .  A
N1092      C1096   1.345       .  A
N1093      C1094   1.347       .  A
C1094      C1095   1.387       .  A
C1094      H1097   1.082       .  S
C1095      C1096   1.386       .  A
C1095      C1508   1.485       .  S
C1096      H1098   1.082       .  S
N1099      N1100   1.323       .  A
N1099      C1103   1.346       .  A
N1099     Cu1107   2.081       .  S
N1100      C1101   1.345       .  A
N1100     Cu1106   2.078       .  S
C1101      C1102   1.385       .  A
C1101      H1104   1.082       .  S
C1102      C1103   1.385       .  A
C1102      C1601   1.481       .  S
C1103      H1105   1.082       .  S
Cu1106     N1109   2.078       .  S
Cu1107     N1117   2.081       .  S
Cu1108     N1110   2.088       .  S
Cu1108     N1116   2.087       .  S
N1109      N1110   1.323       .  A
N1109      C1113   1.346   1_556  A
N1110      C1111   1.348   1_556  A
C1111      C1112   1.386       .  A
C1111      H1114   1.082       .  S
C1112      C1113   1.384       .  A
C1112      C1202   1.478       .  S
C1113      H1115   1.082       .  S
N1116      N1117   1.321       .  A
N1116      C1120   1.345       .  A
N1117      C1118   1.347       .  A
C1118      C1119   1.392       .  A
C1118      H1121   1.081       .  S
C1119      C1120   1.393       .  A
C1119      C1528   1.500       .  S
C1120      H1122   1.080       .  S
C1123      N1124   1.359       .  A
C1123      N1128   1.359       .  A
C1123      C1488   1.491       .  S
N1124      C1125   1.359       .  A
C1125      N1126   1.359       .  A
C1125      C2348   1.487       .  S
N1126      C1127   1.359       .  A
C1127      N1128   1.359       .  A
C1127      C1468   1.478       .  S
N1129      N1130   1.323       .  A
N1129      C1133   1.346       .  A
N1129     Cu1137   2.076       .  S
N1130      C1131   1.344       .  A
N1130     Cu1136   2.076       .  S
C1131      C1132   1.383       .  A
C1131      H1134   1.082       .  S
C1132      C1133   1.384       .  A
C1132      C1461   1.478       .  S
C1133      H1135   1.082       .  S
Cu1136     N1139   2.075       .  S
Cu1137     N1147   2.076       .  S
Cu1138     N1140   2.073       .  S
Cu1138     N1146   2.074       .  S
N1139      N1140   1.322       .  A
N1139      C1143   1.347       .  A
N1140      C1141   1.345       .  A
C1141      C1142   1.382       .  A
C1141      H1144   1.082       .  S
C1142      C1143   1.384       .  A
C1143      H1145   1.082       .  S
N1146      N1147   1.322       .  A
N1146      C1150   1.344       .  A
N1147      C1148   1.346       .  A
C1148      C1149   1.386       .  A
C1148      H1151   1.082       .  S
C1149      C1150   1.384       .  A
C1149      C1581   1.481       .  S
C1150      H1152   1.082       .  S
N1153      N1154   1.323       .  A
N1153      C1157   1.348       .  A
N1153     Cu1161   2.090       .  S
N1154      C1155   1.347       .  A
N1154     Cu1160   2.093       .  S
C1155      C1156   1.390       .  A
C1155      H1158   1.081       .  S
C1156      C1157   1.390       .  A
C1156      C1561   1.495       .  S
C1157      H1159   1.081       .  S
Cu1160     N1163   2.092       .  S
Cu1161     N1171   2.089       .  S
Cu1162     N1164   2.073       .  S
Cu1162     N1170   2.074       .  S
N1163      N1164   1.322       .  A
N1163      C1167   1.348       .  A
N1164      C1165   1.347       .  A
C1165      C1166   1.383       .  A
C1165      H1168   1.082       .  S
C1166      C1167   1.387       .  A
C1166      C1238   1.476       .  S
C1167      H1169   1.082       .  S
N1170      N1171   1.322       .  A
N1170      C1174   1.343       .  A
N1171      C1172   1.348       .  A
C1172      C1173   1.391       .  A
C1172      H1175   1.081       .  S
C1173      C1174   1.387       .  A
C1173      C1481   1.492       .  S
C1174      H1176   1.081       .  S
C1177      N1178   1.360       .  A
C1177      N1182   1.367       .  A
C1177      C1421   1.500       .  S
N1178      C1179   1.356       .  A
C1179      N1180   1.354       .  A
C1179      C2528   1.486       .  S
N1180      C1181   1.357       .  A
C1181      N1182   1.366       .  A
C1181      C1448   1.496       .  S
C1183      N1184   1.361       .  A
C1183      N1188   1.361       .  A
C1183      C1408   1.487       .  S
N1184      C1185   1.358       .  A
C1185      N1186   1.358       .  A
C1185      C2488   1.490       .  S
N1186      C1187   1.360       .  A
C1187      N1188   1.362       .  A
C1187      C1388   1.497       .  S
N1189      N1190   1.323       .  A
N1189      C1193   1.349       .  A
N1189     Cu1197   2.085       .  S
N1190      C1191   1.342       .  A
N1190     Cu1196   2.076       .  S
C1191      C1192   1.385       .  A
C1191      H1194   1.082       .  S
C1192      C1193   1.388       .  A
C1192      C1381   1.485       .  S
C1193      H1195   1.082       .  S
Cu1196     N1199   2.076       .  S
Cu1197     N1207   2.086       .  S
Cu1198     N1200   2.083       .  S
Cu1198     N1206   2.084       .  S
N1199      N1200   1.321       .  A
N1199      C1203   1.347       .  A
N1200      C1201   1.347       .  A
C1201      C1202   1.386       .  A
C1201      H1204   1.082       .  S
C1202      C1203   1.385       .  A
C1203      H1205   1.082       .  S
N1206      N1207   1.323       .  A
N1206      C1210   1.345       .  A
N1207      C1208   1.348       .  A
C1208      C1209   1.388       .  A
C1208      H1211   1.082       .  S
C1209      C1210   1.387       .  A
C1209      C1428   1.488       .  S
C1210      H1212   1.082       .  S
C1213      N1214   1.358       .  A
C1213      N1218   1.359       .  A
C1213      C1348   1.480       .  S
N1214      C1215   1.357       .  A
C1215      N1216   1.358       .  A
C1215      C1361   1.479       .  S
N1216      C1217   1.360       .  A
C1217      N1218   1.360       .  A
C1217      C2628   1.492       .  S
C1219      N1220   1.362       .  A
C1219      N1224   1.363       .  A
C1219      C1301   1.493       .  S
N1220      C1221   1.359       .  A
C1221      N1222   1.356       .  A
C1221      C2328   1.493       .  S
N1222      C1223   1.357       .  A
C1223      N1224   1.361       .  A
C1223      C1321   1.496       .  S
N1225      N1226   1.324       .  A
N1225      C1229   1.347       .  A
N1225     Cu1233   2.078       .  S
N1226      C1227   1.346       .  A
N1226     Cu1232   2.093       .  S
C1227      C1228   1.387       .  A
C1227      H1230   1.082       .  S
C1228      C1229   1.385       .  A
C1228      C1328   1.486       .  S
C1229      H1231   1.082       .  S
Cu1232     N1235   2.092       .  S
Cu1233     N1243   2.077       .  S
Cu1234     N1236   2.068       .  S
Cu1234     N1242   2.068       .  S
N1235      N1236   1.322       .  A
N1235      C1239   1.348       .  A
N1236      C1237   1.346       .  A
C1237      C1238   1.382       .  A
C1237      H1240   1.082       .  S
C1238      C1239   1.387       .  A
C1239      H1241   1.082       .  S
N1242      N1243   1.321       .  A
N1242      C1246   1.341       .  A
N1243      C1244   1.347       .  A
C1244      C1245   1.388       .  A
C1244      H1247   1.081       .  S
C1245      C1246   1.385       .  A
C1245      C1341   1.484       .  S
C1246      H1248   1.081       .  S
N1249      N1250   1.322       .  A
N1249      C1253   1.346       .  A
N1249     Cu1257   2.075       .  S
N1250      C1251   1.344       .  A
N1250     Cu1256   2.077       .  S
C1251      C1252   1.387       .  A
C1251      H1254   1.081       .  S
C1252      C1253   1.387       .  A
C1252      C1308   1.486       .  S
C1253      H1255   1.081       .  S
Cu1256     N1259   2.077       .  S
Cu1257     N1267   2.075       .  S
Cu1258     N1260   2.080       .  S
Cu1258     N1266   2.081       .  S
N1259      N1260   1.323       .  A
N1259      C1263   1.347   1_455  A
N1260      C1261   1.346   1_455  A
C1261      C1262   1.383       .  A
C1261      H1264   1.082       .  S
C1262      C1263   1.384       .  A
C1263      H1265   1.082       .  S
N1266      N1267   1.322       .  A
N1266      C1270   1.346       .  A
N1267      C1268   1.345       .  A
C1268      C1269   1.386       .  A
C1268      H1271   1.082       .  S
C1269      C1270   1.388       .  A
C1269      C1401   1.485       .  S
C1270      H1272   1.082       .  S
N1273      N1274   1.323       .  A
N1273      C1277   1.348       .  A
N1273     Cu1281   2.091       .  S
N1274      C1275   1.344       .  A
N1274     Cu1280   2.071       .  S
C1275      C1276   1.383       .  A
C1275      H1278   1.082       .  S
C1276      C1277   1.388       .  A
C1276      C1368   1.483       .  S
C1277      H1279   1.082       .  S
Cu1280     N1283   2.071       .  S
Cu1281     N1291   2.092       .  S
Cu1282     N1284   2.075       .  S
Cu1282     N1290   2.076       .  S
N1283      N1284   1.322       .  A
N1283      C1287   1.345       .  A
N1284      C1285   1.346       .  A
C1285      C1286   1.384       .  A
C1285      H1288   1.082       .  S
C1286      C1287   1.382       .  A
C1287      H1289   1.082       .  S
N1290      N1291   1.323       .  A
N1290      C1294   1.346       .  A
N1291      C1292   1.348       .  A
C1292      C1293   1.388       .  A
C1292      H1295   1.082       .  S
C1293      C1294   1.384       .  A
C1293      C1441   1.485       .  S
C1294      H1296   1.082       .  S
C1297      C1298   1.401       .  A
C1297      C1302   1.401       .  A
C1297      F1315   1.358       .  S
C1298      C1299   1.401       .  A
C1298      C1303   1.476       .  S
C1299      C1300   1.399       .  A
C1299      F1304   1.358       .  S
C1300      C1301   1.413       .  A
C1300      F1316   1.357       .  S
C1301      C1302   1.414       .  A
C1302      F1305   1.357       .  S
C1303      C1306   1.401       .  A
C1303      C1310   1.402       .  A
C1306      C1307   1.398       .  A
C1306      F1311   1.358       .  S
C1307      C1308   1.410       .  A
C1307      F1313   1.357       .  S
C1308      C1309   1.411       .  A
C1309      C1310   1.402       .  A
C1309      F1312   1.357       .  S
C1310      F1314   1.358       .  S
C1317      C1318   1.401       .  A
C1317      C1322   1.397       .  A
C1317      F1335   1.358       .  S
C1318      C1319   1.404       .  A
C1318      C1323   1.482       .  S
C1319      C1320   1.404       .  A
C1319      F1324   1.358       .  S
C1320      C1321   1.414       .  A
C1320      F1336   1.357       .  S
C1321      C1322   1.415       .  A
C1322      F1325   1.357       .  S
C1323      C1326   1.404       .  A
C1323      C1330   1.404       .  A
C1326      C1327   1.399       .  A
C1326      F1331   1.358       .  S
C1327      C1328   1.408       .  A
C1327      F1333   1.357       .  S
C1328      C1329   1.410       .  A
C1329      C1330   1.403       .  A
C1329      F1332   1.357       .  S
C1330      F1334   1.358       .  S
C1337      C1338   1.406       .  A
C1337      C1342   1.395       .  A
C1337      F1355   1.358       .  S
C1338      C1339   1.408       .  A
C1338      C1343   1.487       .  S
C1339      C1340   1.401       .  A
C1339      F1344   1.358       .  S
C1340      C1341   1.409       .  A
C1340      F1356   1.357       .  S
C1341      C1342   1.408       .  A
C1342      F1345   1.357       .  S
C1343      C1346   1.408       .  A
C1343      C1350   1.407       .  A
C1346      C1347   1.399       .  A
C1346      F1351   1.358       .  S
C1347      C1348   1.407       .  A
C1347      F1353   1.358       .  S
C1348      C1349   1.407       .  A
C1349      C1350   1.398       .  A
C1349      F1352   1.358       .  S
C1350      F1354   1.358       .  S
C1357      C1358   1.405       .  A
C1357      C1362   1.400       .  A
C1357      F1375   1.358       .  S
C1358      C1359   1.405       .  A
C1358      C1363   1.482       .  S
C1359      C1360   1.400       .  A
C1359      F1364   1.358       .  S
C1360      C1361   1.407       .  A
C1360      F1376   1.358       .  S
C1361      C1362   1.408       .  A
C1362      F1365   1.358       .  S
C1363      C1366   1.405       .  A
C1363      C1370   1.405       .  A
C1366      C1367   1.401       .  A
C1366      F1371   1.358       .  S
C1367      C1368   1.408       .  A
C1367      F1373   1.357       .  S
C1368      C1369   1.408       .  A
C1369      C1370   1.400       .  A
C1369      F1372   1.358       .  S
C1370      F1374   1.358       .  S
C1377      C1378   1.407       .  A
C1377      C1382   1.405       .  A
C1377      F1395   1.358       .  S
C1378      C1379   1.404       .  A
C1378      C1383   1.485       .  S
C1379      C1380   1.395       .  A
C1379      F1384   1.358       .  S
C1380      C1381   1.408       .  A
C1380      F1396   1.357       .  S
C1381      C1382   1.409       .  A
C1382      F1385   1.358       .  S
C1383      C1386   1.404       .  A
C1383      C1390   1.403       .  A
C1386      C1387   1.403       .  A
C1386      F1391   1.358       .  S
C1387      C1388   1.414       .  A
C1387      F1393   1.357       .  S
C1388      C1389   1.415       .  A
C1389      C1390   1.397       .  A
C1389      F1392   1.357       .  S
C1390      F1394   1.358       .  S
C1397      C1398   1.406       .  A
C1397      C1402   1.402       .  A
C1397      F1415   1.358       .  S
C1398      C1399   1.407       .  A
C1398      C1403   1.487       .  S
C1399      C1400   1.399       .  A
C1399      F1404   1.358       .  S
C1400      C1401   1.407       .  A
C1400      F1416   1.358       .  S
C1401      C1402   1.410       .  A
C1402      F1405   1.357       .  S
C1403      C1406   1.407       .  A
C1403      C1410   1.405       .  A
C1406      C1407   1.404       .  A
C1406      F1411   1.358       .  S
C1407      C1408   1.411       .  A
C1407      F1413   1.358       .  S
C1408      C1409   1.408       .  A
C1409      C1410   1.397       .  A
C1409      F1412   1.358       .  S
C1410      F1414   1.358       .  S
C1417      C1418   1.402       .  A
C1417      C1422   1.399       .  A
C1417      F1435   1.358       .  S
C1418      C1419   1.405       .  A
C1418      C1423   1.486       .  S
C1419      C1420   1.405       .  A
C1419      F1424   1.358       .  S
C1420      C1421   1.414       .  A
C1420      F1436   1.357       .  S
C1421      C1422   1.417       .  A
C1422      F1425   1.357       .  S
C1423      C1426   1.405       .  A
C1423      C1430   1.406       .  A
C1426      C1427   1.400       .  A
C1426      F1431   1.358       .  S
C1427      C1428   1.409       .  A
C1427      F1433   1.357       .  S
C1428      C1429   1.409       .  A
C1429      C1430   1.403       .  A
C1429      F1432   1.357       .  S
C1430      F1434   1.358       .  S
C1437      C1438   1.407       .  A
C1437      C1442   1.401       .  A
C1437      F1455   1.358       .  S
C1438      C1439   1.405       .  A
C1438      C1443   1.487       .  S
C1439      C1440   1.402       .  A
C1439      F1444   1.357       .  S
C1440      C1441   1.407       .  A
C1440      F1456   1.357       .  S
C1441      C1442   1.408       .  A
C1442      F1445   1.358       .  S
C1443      C1446   1.406       .  A
C1443      C1450   1.402       .  A
C1446      C1447   1.405       .  A
C1446      F1451   1.358       .  S
C1447      C1448   1.412       .  A
C1447      F1453   1.357       .  S
C1448      C1449   1.416       .  A
C1449      C1450   1.398       .  A
C1449      F1452   1.358       .  S
C1450      F1454   1.358       .  S
C1457      C1458   1.404       .  A
C1457      C1462   1.399       .  A
C1457      F1475   1.358       .  S
C1458      C1459   1.404       .  A
C1458      C1463   1.478       .  S
C1459      C1460   1.398       .  A
C1459      F1464   1.358       .  S
C1460      C1461   1.407       .  A
C1460      F1476   1.358       .  S
C1461      C1462   1.407       .  A
C1462      F1465   1.358       .  S
C1463      C1466   1.404       .  A
C1463      C1470   1.404       .  A
C1466      C1467   1.399       .  A
C1466      F1471   1.358       .  S
C1467      C1468   1.407       .  A
C1467      F1473   1.358       .  S
C1468      C1469   1.408       .  A
C1469      C1470   1.399       .  A
C1469      F1472   1.358       .  S
C1470      F1474   1.358       .  S
C1477      C1478   1.404       .  A
C1477      C1482   1.402       .  A
C1477      F1495   1.358       .  S
C1478      C1479   1.402       .  A
C1478      C1483   1.481       .  S
C1479      C1480   1.398       .  A
C1479      F1484   1.358       .  S
C1480      C1481   1.412       .  A
C1480      F1496   1.357       .  S
C1481      C1482   1.412       .  A
C1482      F1485   1.357       .  S
C1483      C1486   1.403       .  A
C1483      C1490   1.403       .  A
C1486      C1487   1.401       .  A
C1486      F1491   1.358       .  S
C1487      C1488   1.414       .  A
C1487      F1493   1.358       .  S
C1488      C1489   1.412       .  A
C1489      C1490   1.398       .  A
C1489      F1492   1.358       .  S
C1490      F1494   1.358       .  S
C1497      C1498   1.405       .  A
C1497      C1502   1.398       .  A
C1497      F1515   1.358       .  S
C1498      C1499   1.408       .  A
C1498      C1503   1.488       .  S
C1499      C1500   1.403       .  A
C1499      F1504   1.358       .  S
C1500      C1501   1.407       .  A
C1500      F1516   1.357       .  S
C1501      C1502   1.410       .  A
C1502      F1505   1.358       .  S
C1503      C1506   1.407       .  A
C1503      C1510   1.406       .  A
C1506      C1507   1.400       .  A
C1506      F1511   1.358       .  S
C1507      C1508   1.407       .  A
C1507      F1513   1.358       .  S
C1508      C1509   1.408       .  A
C1509      C1510   1.402       .  A
C1509      F1512   1.357       .  S
C1510      F1514   1.358       .  S
C1517      C1518   1.406       .  A
C1517      C1522   1.403       .  A
C1517      F1535   1.358       .  S
C1518      C1519   1.404       .  A
C1518      C1523   1.489       .  S
C1519      C1520   1.401       .  A
C1519      F1524   1.358       .  S
C1520      C1521   1.414       .  A
C1520      F1536   1.358       .  S
C1521      C1522   1.411       .  A
C1522      F1525   1.357       .  S
C1523      C1526   1.404       .  A
C1523      C1530   1.404       .  A
C1526      C1527   1.403       .  A
C1526      F1531   1.358       .  S
C1527      C1528   1.414       .  A
C1527      F1533   1.356       .  S
C1528      C1529   1.414       .  A
C1529      C1530   1.401       .  A
C1529      F1532   1.356       .  S
C1530      F1534   1.358       .  S
C1537      C1538   1.408       .  A
C1537      C1542   1.404       .  A
C1537      F1555   1.357       .  S
C1538      C1539   1.405       .  A
C1538      C1543   1.492       .  S
C1539      C1540   1.396       .  A
C1539      F1544   1.358       .  S
C1540      C1541   1.416       .  A
C1540      F1556   1.358       .  S
C1541      C1542   1.412       .  A
C1542      F1545   1.357       .  S
C1543      C1546   1.408       .  A
C1543      C1550   1.407       .  A
C1546      C1547   1.399       .  A
C1546      F1551   1.358       .  S
C1547      C1548   1.409       .  A
C1547      F1553   1.357       .  S
C1548      C1549   1.411       .  A
C1549      C1550   1.402       .  A
C1549      F1552   1.357       .  S
C1550      F1554   1.358       .  S
C1557      C1558   1.406       .  A
C1557      C1562   1.405       .  A
C1557      F1575   1.358       .  S
C1558      C1559   1.406       .  A
C1558      C1563   1.491       .  S
C1559      C1560   1.402       .  A
C1559      F1564   1.358       .  S
C1560      C1561   1.411       .  A
C1560      F1576   1.357       .  S
C1561      C1562   1.412       .  A
C1562      F1565   1.357       .  S
C1563      C1566   1.405       .  A
C1563      C1570   1.404       .  A
C1566      C1567   1.405       .  A
C1566      F1571   1.358       .  S
C1567      C1568   1.415       .  A
C1567      F1573   1.357       .  S
C1568      C1569   1.416       .  A
C1569      C1570   1.401       .  A
C1569      F1572   1.357       .  S
C1570      F1574   1.358       .  S
C1577      C1578   1.406       .  A
C1577      C1582   1.400       .  A
C1577      F1595   1.358       .  S
C1578      C1579   1.406       .  A
C1578      C1583   1.483       .  S
C1579      C1580   1.399       .  A
C1579      F1584   1.358       .  S
C1580      C1581   1.407       .  A
C1580      F1596   1.358       .  S
C1581      C1582   1.407       .  A
C1582      F1585   1.358       .  S
C1583      C1586   1.403       .  A
C1583      C1590   1.405       .  A
C1586      C1587   1.398       .  A
C1586      F1591   1.358       .  S
C1587      C1588   1.415       .  A
C1587      F1593   1.358       .  S
C1588      C1589   1.413       .  A
C1589      C1590   1.401       .  A
C1589      F1592   1.357       .  S
C1590      F1594   1.358       .  S
C1597      C1598   1.407       .  A
C1597      C1602   1.400       .  A
C1597      F1615   1.358       .  S
C1598      C1599   1.408       .  A
C1598      C1603   1.487       .  S
C1599      C1600   1.400       .  A
C1599      F1604   1.358       .  S
C1600      C1601   1.406       .  A
C1600      F1616   1.358       .  S
C1601      C1602   1.407       .  A
C1602      F1605   1.357       .  S
C1603      C1606   1.406       .  A
C1603      C1610   1.408       .  A
C1606      C1607   1.397       .  A
C1606      F1611   1.358       .  S
C1607      C1608   1.407       .  A
C1607      F1613   1.358       .  S
C1608      C1609   1.407       .  A
C1609      C1610   1.402       .  A
C1609      F1612   1.358       .  S
C1610      F1614   1.358       .  S
C1617      C1618   1.400       .  A
C1617      C1622   1.396       .  A
C1617      F1635   1.358       .  S
C1618      C1619   1.401       .  A
C1618      C1623   1.473       .  S
C1619      C1620   1.397       .  A
C1619      F1624   1.358       .  S
C1620      C1621   1.413       .  A
C1620      F1636   1.357       .  S
C1621      C1622   1.414       .  A
C1622      F1625   1.358       .  S
C1623      C1626   1.403       .  A
C1623      C1630   1.403       .  A
C1626      C1627   1.395       .  A
C1626      F1631   1.358       .  S
C1627      C1628   1.409       .  A
C1627      F1633   1.358       .  S
C1628      C1629   1.407       .  A
C1629      C1630   1.398       .  A
C1629      F1632   1.357       .  S
C1630      F1634   1.358       .  S
C1637      C1638   1.405       .  A
C1637      C1642   1.395       .  A
C1637      F1655   1.358       .  S
C1638      C1639   1.405       .  A
C1638      C1643   1.478       .  S
C1639      C1640   1.400       .  A
C1639      F1644   1.358       .  S
C1640      C1641   1.408       .  A
C1640      F1656   1.358       .  S
C1641      C1642   1.406       .  A
C1642      F1645   1.358       .  S
C1643      C1646   1.404       .  A
C1643      C1650   1.405       .  A
C1646      C1647   1.394       .  A
C1646      F1651   1.358       .  S
C1647      C1648   1.405       .  A
C1647      F1653   1.358       .  S
C1648      C1649   1.409       .  A
C1649      C1650   1.401       .  A
C1649      F1652   1.358       .  S
C1650      F1654   1.358       .  S
C1657      C1658   1.402       .  A
C1657      C1662   1.397       .  A
C1657      F1675   1.358       .  S
C1658      C1659   1.403       .  A
C1658      C1663   1.473       .  S
C1659      C1660   1.399       .  A
C1659      F1664   1.358       .  S
C1660      C1661   1.408       .  A
C1660      F1676   1.357       .  S
C1661      C1662   1.408       .  A
C1662      F1665   1.358       .  S
C1663      C1666   1.402       .  A
C1663      C1670   1.403       .  A
C1666      C1667   1.396       .  A
C1666      F1671   1.358       .  S
C1667      C1668   1.407       .  A
C1667      F1673   1.358       .  S
C1668      C1669   1.408       .  A
C1669      C1670   1.400       .  A
C1669      F1672   1.358       .  S
C1670      F1674   1.358       .  S
C1677      C1678   1.404       .  A
C1677      C1682   1.399       .  A
C1677      F1695   1.358       .  S
C1678      C1679   1.405       .  A
C1678      C1683   1.484       .  S
C1679      C1680   1.397       .  A
C1679      F1684   1.358       .  S
C1680      C1681   1.411       .  A
C1680      F1696   1.357       .  S
C1681      C1682   1.412       .  A
C1682      F1685   1.356       .  S
C1683      C1686   1.409       .  A
C1683      C1690   1.406       .  A
C1686      C1687   1.401       .  A
C1686      F1691   1.358       .  S
C1687      C1688   1.406       .  A
C1687      F1693   1.358       .  S
C1688      C1689   1.405       .  A
C1689      C1690   1.396       .  A
C1689      F1692   1.358       .  S
C1690      F1694   1.358       .  S
C1697      C1698   1.401       .  A
C1697      C1702   1.397       .  A
C1697      F1715   1.358       .  S
C1698      C1699   1.402       .  A
C1698      C1703   1.473       .  S
C1699      C1700   1.397       .  A
C1699      F1704   1.358       .  S
C1700      C1701   1.410       .  A
C1700      F1716   1.357       .  S
C1701      C1702   1.412       .  A
C1702      F1705   1.358       .  S
C1703      C1706   1.401       .  A
C1703      C1710   1.400       .  A
C1706      C1707   1.398       .  A
C1706      F1711   1.358       .  S
C1707      C1708   1.412       .  A
C1707      F1713   1.356       .  S
C1708      C1709   1.412       .  A
C1709      C1710   1.396       .  A
C1709      F1712   1.357       .  S
C1710      F1714   1.358       .  S
C1717      C1718   1.401       .  A
C1717      C1722   1.400       .  A
C1717      F1735   1.358       .  S
C1718      C1719   1.402       .  A
C1718      C1723   1.474       .  S
C1719      C1720   1.396       .  A
C1719      F1724   1.358       .  S
C1720      C1721   1.409       .  A
C1720      F1736   1.357       .  S
C1721      C1722   1.413       .  A
C1722      F1725   1.358       .  S
C1723      C1726   1.403       .  A
C1723      C1730   1.404       .  A
C1726      C1727   1.396       .  A
C1726      F1731   1.358       .  S
C1727      C1728   1.406       .  A
C1727      F1733   1.358       .  S
C1728      C1729   1.407       .  A
C1729      C1730   1.400       .  A
C1729      F1732   1.358       .  S
C1730      F1734   1.358       .  S
C1737      C1738   1.406       .  A
C1737      C1742   1.396       .  A
C1737      F1755   1.358       .  S
C1738      C1739   1.407       .  A
C1738      C1743   1.483       .  S
C1739      C1740   1.400       .  A
C1739      F1744   1.358       .  S
C1740      C1741   1.407       .  A
C1740      F1756   1.358       .  S
C1741      C1742   1.407       .  A
C1742      F1745   1.358       .  S
C1743      C1746   1.406       .  A
C1743      C1750   1.404       .  A
C1746      C1747   1.398       .  A
C1746      F1751   1.358       .  S
C1747      C1748   1.409       .  A
C1747      F1753   1.357       .  S
C1748      C1749   1.411       .  A
C1749      C1750   1.399       .  A
C1749      F1752   1.357       .  S
C1750      F1754   1.358       .  S
C1757      C1758   1.403       .  A
C1757      C1762   1.400       .  A
C1757      F1775   1.358       .  S
C1758      C1759   1.401       .  A
C1758      C1763   1.478       .  S
C1759      C1760   1.394       .  A
C1759      F1764   1.358       .  S
C1760      C1761   1.414       .  A
C1760      F1776   1.358       .  S
C1761      C1762   1.413       .  A
C1762      F1765   1.357       .  S
C1763      C1766   1.404       .  A
C1763      C1770   1.404       .  A
C1766      C1767   1.395       .  A
C1766      F1771   1.358       .  S
C1767      C1768   1.407       .  A
C1767      F1773   1.357       .  S
C1768      C1769   1.410       .  A
C1769      C1770   1.400       .  A
C1769      F1772   1.357       .  S
C1770      F1774   1.358       .  S
C1777      C1778   1.404       .  A
C1777      C1782   1.401       .  A
C1777      F1795   1.358       .  S
C1778      C1779   1.405       .  A
C1778      C1783   1.486       .  S
C1779      C1780   1.399       .  A
C1779      F1784   1.358       .  S
C1780      C1781   1.412       .  A
C1780      F1796   1.357       .  S
C1781      C1782   1.413       .  A
C1782      F1785   1.357       .  S
C1783      C1786   1.405       .  A
C1783      C1790   1.407       .  A
C1786      C1787   1.398       .  A
C1786      F1791   1.358       .  S
C1787      C1788   1.408       .  A
C1787      F1793   1.358       .  S
C1788      C1789   1.408       .  A
C1789      C1790   1.401       .  A
C1789      F1792   1.357       .  S
C1790      F1794   1.358       .  S
C1797      C1798   1.401       .  A
C1797      C1802   1.398       .  A
C1797      F1815   1.358       .  S
C1798      C1799   1.402       .  A
C1798      C1803   1.479       .  S
C1799      C1800   1.400       .  A
C1799      F1804   1.358       .  S
C1800      C1801   1.415       .  A
C1800      F1816   1.357       .  S
C1801      C1802   1.415       .  A
C1802      F1805   1.357       .  S
C1803      C1806   1.404       .  A
C1803      C1810   1.405       .  A
C1806      C1807   1.399       .  A
C1806      F1811   1.358       .  S
C1807      C1808   1.408       .  A
C1807      F1813   1.358       .  S
C1808      C1809   1.407       .  A
C1809      C1810   1.400       .  A
C1809      F1812   1.358       .  S
C1810      F1814   1.358       .  S
C1817      C1818   1.406       .  A
C1817      C1822   1.394       .  A
C1817      F1835   1.358       .  S
C1818      C1819   1.407       .  A
C1818      C1823   1.484       .  S
C1819      C1820   1.402       .  A
C1819      F1824   1.358       .  S
C1820      C1821   1.409       .  A
C1820      F1836   1.358       .  S
C1821      C1822   1.407       .  A
C1822      F1825   1.358       .  S
C1823      C1826   1.406       .  A
C1823      C1830   1.408       .  A
C1826      C1827   1.395       .  A
C1826      F1831   1.358       .  S
C1827      C1828   1.405       .  A
C1827      F1833   1.358       .  S
C1828      C1829   1.407       .  A
C1829      C1830   1.402       .  A
C1829      F1832   1.358       .  S
C1830      F1834   1.358       .  S
C1837      C1838   1.404       .  A
C1837      C1842   1.401       .  A
C1837      F1855   1.358       .  S
C1838      C1839   1.404       .  A
C1838      C1843   1.479       .  S
C1839      C1840   1.397       .  A
C1839      F1844   1.358       .  S
C1840      C1841   1.408       .  A
C1840      F1856   1.358       .  S
C1841      C1842   1.409       .  A
C1842      F1845   1.358       .  S
C1843      C1846   1.403       .  A
C1843      C1850   1.406       .  A
C1846      C1847   1.396       .  A
C1846      F1851   1.358       .  S
C1847      C1848   1.407       .  A
C1847      F1853   1.357       .  S
C1848      C1849   1.408       .  A
C1849      C1850   1.403       .  A
C1849      F1852   1.358       .  S
C1850      F1854   1.358       .  S
C1857      C1858   1.405       .  A
C1857      C1862   1.399       .  A
C1857      F1875   1.358       .  S
C1858      C1859   1.405       .  A
C1858      C1863   1.488       .  S
C1859      C1860   1.400       .  A
C1859      F1864   1.358       .  S
C1860      C1861   1.414       .  A
C1860      F1876   1.358       .  S
C1861      C1862   1.413       .  A
C1862      F1865   1.357       .  S
C1863      C1866   1.408       .  A
C1863      C1870   1.407       .  A
C1866      C1867   1.402       .  A
C1866      F1871   1.358       .  S
C1867      C1868   1.407       .  A
C1867      F1873   1.357       .  S
C1868      C1869   1.408       .  A
C1869      C1870   1.399       .  A
C1869      F1872   1.358       .  S
C1870      F1874   1.358       .  S
C1877      C1878   1.405       .  A
C1877      C1882   1.399       .  A
C1877      F1895   1.358       .  S
C1878      C1879   1.404       .  A
C1878      C1883   1.476       .  S
C1879      C1880   1.398       .  A
C1879      F1884   1.358       .  S
C1880      C1881   1.406       .  A
C1880      F1896   1.358       .  S
C1881      C1882   1.406       .  A
C1882      F1885   1.358       .  S
C1883      C1886   1.403       .  A
C1883      C1890   1.404       .  A
C1886      C1887   1.397       .  A
C1886      F1891   1.358       .  S
C1887      C1888   1.408       .  A
C1887      F1893   1.358       .  S
C1888      C1889   1.407       .  A
C1889      C1890   1.400       .  A
C1889      F1892   1.357       .  S
C1890      F1894   1.358       .  S
C1897      C1898   1.405       .  A
C1897      C1902   1.405       .  A
C1897      F1915   1.358       .  S
C1898      C1899   1.403       .  A
C1898      C1903   1.487       .  S
C1899      C1900   1.399       .  A
C1899      F1904   1.358       .  S
C1900      C1901   1.413       .  A
C1900      F1916   1.357       .  S
C1901      C1902   1.415       .  A
C1902      F1905   1.358       .  S
C1903      C1906   1.404       .  A
C1903      C1910   1.405       .  A
C1906      C1907   1.400       .  A
C1906      F1911   1.358       .  S
C1907      C1908   1.410       .  A
C1907      F1913   1.357       .  S
C1908      C1909   1.411       .  A
C1909      C1910   1.405       .  A
C1909      F1912   1.357       .  S
C1910      F1914   1.358       .  S
C1917      C1918   1.405       .  A
C1917      C1922   1.398       .  A
C1917      F1935   1.358       .  S
C1918      C1919   1.408       .  A
C1918      C1923   1.485       .  S
C1919      C1920   1.402       .  A
C1919      F1924   1.358       .  S
C1920      C1921   1.407       .  A
C1920      F1936   1.358       .  S
C1921      C1922   1.408       .  A
C1922      F1925   1.358       .  S
C1923      C1926   1.405       .  A
C1923      C1930   1.403       .  A
C1926      C1927   1.399       .  A
C1926      F1931   1.358       .  S
C1927      C1928   1.413       .  A
C1927      F1933   1.357       .  S
C1928      C1929   1.412       .  A
C1929      C1930   1.400       .  A
C1929      F1932   1.356       .  S
C1930      F1934   1.358       .  S
C1937      C1938   1.405       .  A
C1937      C1942   1.397       .  A
C1937      F1955   1.358       .  S
C1938      C1939   1.405       .  A
C1938      C1943   1.481       .  S
C1939      C1940   1.401       .  A
C1939      F1944   1.358       .  S
C1940      C1941   1.409       .  A
C1940      F1956   1.358       .  S
C1941      C1942   1.408       .  A
C1942      F1945   1.358       .  S
C1943      C1946   1.405       .  A
C1943      C1950   1.405       .  A
C1946      C1947   1.398       .  A
C1946      F1951   1.358       .  S
C1947      C1948   1.407       .  A
C1947      F1953   1.358       .  S
C1948      C1949   1.408       .  A
C1949      C1950   1.401       .  A
C1949      F1952   1.357       .  S
C1950      F1954   1.358       .  S
C1957      C1958   1.404       .  A
C1957      C1962   1.400       .  A
C1957      F1975   1.358       .  S
C1958      C1959   1.405       .  A
C1958      C1963   1.480       .  S
C1959      C1960   1.396       .  A
C1959      F1964   1.358       .  S
C1960      C1961   1.407       .  A
C1960      F1976   1.358       .  S
C1961      C1962   1.410       .  A
C1962      F1965   1.358       .  S
C1963      C1966   1.404       .  A
C1963      C1970   1.406       .  A
C1966      C1967   1.395       .  A
C1966      F1971   1.358       .  S
C1967      C1968   1.405       .  A
C1967      F1973   1.358       .  S
C1968      C1969   1.408       .  A
C1969      C1970   1.401       .  A
C1969      F1972   1.358       .  S
C1970      F1974   1.358       .  S
C1977      C1978   1.407       .  A
C1977      C1982   1.399       .  A
C1977      F1995   1.358       .  S
C1978      C1979   1.407       .  A
C1978      C1983   1.486       .  S
C1979      C1980   1.400       .  A
C1979      F1984   1.358       .  S
C1980      C1981   1.407       .  A
C1980      F1996   1.357       .  S
C1981      C1982   1.407       .  A
C1982      F1985   1.358       .  S
C1983      C1986   1.407       .  A
C1983      C1990   1.406       .  A
C1986      C1987   1.401       .  A
C1986      F1991   1.358       .  S
C1987      C1988   1.409       .  A
C1987      F1993   1.358       .  S
C1988      C1989   1.409       .  A
C1989      C1990   1.399       .  A
C1989      F1992   1.358       .  S
C1990      F1994   1.358       .  S
C1997      C1998   1.407       .  A
C1997      C2002   1.398       .  A
C1997      F2015   1.358       .  S
C1998      C1999   1.406       .  A
C1998      C2003   1.483       .  S
C1999      C2000   1.400       .  A
C1999      F2004   1.358       .  S
C2000      C2001   1.407       .  A
C2000      F2016   1.358       .  S
C2001      C2002   1.405       .  A
C2002      F2005   1.358       .  S
C2003      C2006   1.403       .  A
C2003      C2010   1.406       .  A
C2006      C2007   1.396       .  A
C2006      F2011   1.358       .  S
C2007      C2008   1.411       .  A
C2007      F2013   1.357       .  S
C2008      C2009   1.412       .  A
C2009      C2010   1.402       .  A
C2009      F2012   1.357       .  S
C2010      F2014   1.358       .  S
C2017      C2018   1.404       .  A
C2017      C2022   1.402       .  A
C2017      F2035   1.358       .  S
C2018      C2019   1.404       .  A
C2018      C2023   1.481       .  S
C2019      C2020   1.401       .  A
C2019      F2024   1.358       .  S
C2020      C2021   1.409       .  A
C2020      F2036   1.357       .  S
C2021      C2022   1.409       .  A
C2022      F2025   1.357       .  S
C2023      C2026   1.405       .  A
C2023      C2030   1.403       .  A
C2026      C2027   1.403       .  A
C2026      F2031   1.358       .  S
C2027      C2028   1.409       .  A
C2027      F2033   1.358       .  S
C2028      C2029   1.411       .  A
C2029      C2030   1.399       .  A
C2029      F2032   1.358       .  S
C2030      F2034   1.358       .  S
C2037      C2038   1.408       .  A
C2037      C2042   1.402       .  A
C2037      F2055   1.358       .  S
C2038      C2039   1.408       .  A
C2038      C2043   1.489       .  S
C2039      C2040   1.401       .  A
C2039      F2044   1.358       .  S
C2040      C2041   1.407       .  A
C2040      F2056   1.358       .  S
C2041      C2042   1.407       .  A
C2042      F2045   1.358       .  S
C2043      C2046   1.407       .  A
C2043      C2050   1.406       .  A
C2046      C2047   1.402       .  A
C2046      F2051   1.358       .  S
C2047      C2048   1.409       .  A
C2047      F2053   1.357       .  S
C2048      C2049   1.408       .  A
C2049      C2050   1.399       .  A
C2049      F2052   1.357       .  S
C2050      F2054   1.358       .  S
C2057      C2058   1.402       .  A
C2057      C2062   1.400       .  A
C2057      F2075   1.358       .  S
C2058      C2059   1.402       .  A
C2058      C2063   1.478       .  S
C2059      C2060   1.401       .  A
C2059      F2064   1.358       .  S
C2060      C2061   1.411       .  A
C2060      F2076   1.357       .  S
C2061      C2062   1.412       .  A
C2062      F2065   1.358       .  S
C2063      C2066   1.402       .  A
C2063      C2070   1.403       .  A
C2066      C2067   1.399       .  A
C2066      F2071   1.358       .  S
C2067      C2068   1.410       .  A
C2067      F2073   1.357       .  S
C2068      C2069   1.411       .  A
C2069      C2070   1.403       .  A
C2069      F2072   1.357       .  S
C2070      F2074   1.358       .  S
C2077      C2078   1.403       .  A
C2077      C2082   1.400       .  A
C2077      F2095   1.358       .  S
C2078      C2079   1.402       .  A
C2078      C2083   1.483       .  S
C2079      C2080   1.401       .  A
C2079      F2084   1.358       .  S
C2080      C2081   1.415       .  A
C2080      F2096   1.357       .  S
C2081      C2082   1.415       .  A
C2082      F2085   1.358       .  S
C2083      C2086   1.405       .  A
C2083      C2090   1.403       .  A
C2086      C2087   1.403       .  A
C2086      F2091   1.358       .  S
C2087      C2088   1.410       .  A
C2087      F2093   1.357       .  S
C2088      C2089   1.410       .  A
C2089      C2090   1.398       .  A
C2089      F2092   1.357       .  S
C2090      F2094   1.358       .  S
C2097      C2098   1.401       .  A
C2097      C2102   1.399       .  A
C2097      F2115   1.358       .  S
C2098      C2099   1.401       .  A
C2098      C2103   1.476       .  S
C2099      C2100   1.399       .  A
C2099      F2104   1.358       .  S
C2100      C2101   1.414       .  A
C2100      F2116   1.358       .  S
C2101      C2102   1.412       .  A
C2102      F2105   1.357       .  S
C2103      C2106   1.403       .  A
C2103      C2110   1.403       .  A
C2106      C2107   1.399       .  A
C2106      F2111   1.358       .  S
C2107      C2108   1.407       .  A
C2107      F2113   1.358       .  S
C2108      C2109   1.407       .  A
C2109      C2110   1.399       .  A
C2109      F2112   1.358       .  S
C2110      F2114   1.358       .  S
C2117      C2118   1.402       .  A
C2117      C2122   1.397       .  A
C2117      F2135   1.358       .  S
C2118      C2119   1.405       .  A
C2118      C2123   1.484       .  S
C2119      C2120   1.401       .  A
C2119      F2124   1.358       .  S
C2120      C2121   1.412       .  A
C2120      F2136   1.357       .  S
C2121      C2122   1.416       .  A
C2122      F2125   1.357       .  S
C2123      C2126   1.406       .  A
C2123      C2130   1.405       .  A
C2126      C2127   1.400       .  A
C2126      F2131   1.358       .  S
C2127      C2128   1.409       .  A
C2127      F2133   1.358       .  S
C2128      C2129   1.408       .  A
C2129      C2130   1.400       .  A
C2129      F2132   1.357       .  S
C2130      F2134   1.358       .  S
C2137      C2138   1.400       .  A
C2137      C2142   1.395       .  A
C2137      F2155   1.358       .  S
C2138      C2139   1.403       .  A
C2138      C2143   1.478       .  S
C2139      C2140   1.402       .  A
C2139      F2144   1.358       .  S
C2140      C2141   1.414       .  A
C2140      F2156   1.357       .  S
C2141      C2142   1.416       .  A
C2142      F2145   1.357       .  S
C2143      C2146   1.404       .  A
C2143      C2150   1.403       .  A
C2146      C2147   1.400       .  A
C2146      F2151   1.358       .  S
C2147      C2148   1.409       .  A
C2147      F2153   1.358       .  S
C2148      C2149   1.408       .  A
C2149      C2150   1.397       .  A
C2149      F2152   1.357       .  S
C2150      F2154   1.358       .  S
C2157      C2158   1.409       .  A
C2157      C2162   1.402       .  A
C2157      F2175   1.358       .  S
C2158      C2159   1.407       .  A
C2158      C2163   1.489       .  S
C2159      C2160   1.398       .  A
C2159      F2164   1.358       .  S
C2160      C2161   1.408       .  A
C2160      F2176   1.358       .  S
C2161      C2162   1.408       .  A
C2162      F2165   1.358       .  S
C2163      C2166   1.407       .  A
C2163      C2170   1.407       .  A
C2166      C2167   1.401       .  A
C2166      F2171   1.358       .  S
C2167      C2168   1.409       .  A
C2167      F2173   1.357       .  S
C2168      C2169   1.410       .  A
C2169      C2170   1.399       .  A
C2169      F2172   1.357       .  S
C2170      F2174   1.358       .  S
C2177      C2178   1.407       .  A
C2177      C2182   1.400       .  A
C2177      F2195   1.358       .  S
C2178      C2179   1.408       .  A
C2178      C2183   1.490       .  S
C2179      C2180   1.402       .  A
C2179      F2184   1.358       .  S
C2180      C2181   1.407       .  A
C2180      F2196   1.358       .  S
C2181      C2182   1.408       .  A
C2182      F2185   1.358       .  S
C2183      C2186   1.406       .  A
C2183      C2190   1.406       .  A
C2186      C2187   1.400       .  A
C2186      F2191   1.358       .  S
C2187      C2188   1.412       .  A
C2187      F2193   1.356       .  S
C2188      C2189   1.412       .  A
C2189      C2190   1.403       .  A
C2189      F2192   1.357       .  S
C2190      F2194   1.358       .  S
C2197      C2198   1.406       .  A
C2197      C2202   1.396       .  A
C2197      F2215   1.358       .  S
C2198      C2199   1.409       .  A
C2198      C2203   1.489       .  S
C2199      C2200   1.404       .  A
C2199      F2204   1.358       .  S
C2200      C2201   1.408       .  A
C2200      F2216   1.358       .  S
C2201      C2202   1.408       .  A
C2202      F2205   1.358       .  S
C2203      C2206   1.408       .  A
C2203      C2210   1.407       .  A
C2206      C2207   1.399       .  A
C2206      F2211   1.358       .  S
C2207      C2208   1.406       .  A
C2207      F2213   1.358       .  S
C2208      C2209   1.409       .  A
C2209      C2210   1.401       .  A
C2209      F2212   1.357       .  S
C2210      F2214   1.358       .  S
C2217      C2218   1.406       .  A
C2217      C2222   1.402       .  A
C2217      F2235   1.358       .  S
C2218      C2219   1.404       .  A
C2218      C2223   1.481       .  S
C2219      C2220   1.396       .  A
C2219      F2224   1.358       .  S
C2220      C2221   1.406       .  A
C2220      F2236   1.358       .  S
C2221      C2222   1.408       .  A
C2222      F2225   1.358       .  S
C2223      C2226   1.404       .  A
C2223      C2230   1.406       .  A
C2226      C2227   1.399       .  A
C2226      F2231   1.358       .  S
C2227      C2228   1.408       .  A
C2227      F2233   1.358       .  S
C2228      C2229   1.405       .  A
C2229      C2230   1.398       .  A
C2229      F2232   1.358       .  S
C2230      F2234   1.358       .  S
C2237      C2238   1.408       .  A
C2237      C2242   1.401       .  A
C2237      F2255   1.358       .  S
C2238      C2239   1.407       .  A
C2238      C2243   1.490       .  S
C2239      C2240   1.399       .  A
C2239      F2244   1.358       .  S
C2240      C2241   1.409       .  A
C2240      F2256   1.357       .  S
C2241      C2242   1.408       .  A
C2242      F2245   1.357       .  S
C2243      C2246   1.407       .  A
C2243      C2250   1.408       .  A
C2246      C2247   1.398       .  A
C2246      F2251   1.358       .  S
C2247      C2248   1.408       .  A
C2247      F2253   1.358       .  S
C2248      C2249   1.409       .  A
C2249      C2250   1.400       .  A
C2249      F2252   1.358       .  S
C2250      F2254   1.358       .  S
C2257      C2258   1.403       .  A
C2257      C2262   1.398       .  A
C2257      F2275   1.358       .  S
C2258      C2259   1.402       .  A
C2258      C2263   1.479       .  S
C2259      C2260   1.398       .  A
C2259      F2264   1.358       .  S
C2260      C2261   1.413       .  A
C2260      F2276   1.357       .  S
C2261      C2262   1.411       .  A
C2262      F2265   1.357       .  S
C2263      C2266   1.405       .  A
C2263      C2270   1.403       .  A
C2266      C2267   1.400       .  A
C2266      F2271   1.358       .  S
C2267      C2268   1.408       .  A
C2267      F2273   1.357       .  S
C2268      C2269   1.409       .  A
C2269      C2270   1.397       .  A
C2269      F2272   1.357       .  S
C2270      F2274   1.358       .  S
C2277      C2278   1.404       .  A
C2277      C2282   1.401       .  A
C2277      F2295   1.358       .  S
C2278      C2279   1.402       .  A
C2278      C2283   1.480       .  S
C2279      C2280   1.399       .  A
C2279      F2284   1.358       .  S
C2280      C2281   1.411       .  A
C2280      F2296   1.357       .  S
C2281      C2282   1.411       .  A
C2282      F2285   1.357       .  S
C2283      C2286   1.404       .  A
C2283      C2290   1.404       .  A
C2286      C2287   1.400       .  A
C2286      F2291   1.358       .  S
C2287      C2288   1.409       .  A
C2287      F2293   1.358       .  S
C2288      C2289   1.408       .  A
C2289      C2290   1.400       .  A
C2289      F2292   1.358       .  S
C2290      F2294   1.358       .  S
C2297      C2298   1.405       .  A
C2297      C2302   1.398       .  A
C2297      F2315   1.358       .  S
C2298      C2299   1.405       .  A
C2298      C2303   1.484       .  S
C2299      C2300   1.400       .  A
C2299      F2304   1.358       .  S
C2300      C2301   1.410       .  A
C2300      F2316   1.357       .  S
C2301      C2302   1.409       .  A
C2302      F2305   1.357       .  S
C2303      C2306   1.405       .  A
C2303      C2310   1.405       .  A
C2306      C2307   1.400       .  A
C2306      F2311   1.358       .  S
C2307      C2308   1.411       .  A
C2307      F2313   1.358       .  S
C2308      C2309   1.409       .  A
C2309      C2310   1.399       .  A
C2309      F2312   1.357       .  S
C2310      F2314   1.358       .  S
C2317      C2318   1.405       .  A
C2317      C2322   1.400       .  A
C2317      F2335   1.358       .  S
C2318      C2319   1.405       .  A
C2318      C2323   1.484       .  S
C2319      C2320   1.399       .  A
C2319      F2324   1.358       .  S
C2320      C2321   1.409       .  A
C2320      F2336   1.357       .  S
C2321      C2322   1.409       .  A
C2322      F2325   1.357       .  S
C2323      C2326   1.405       .  A
C2323      C2330   1.403       .  A
C2326      C2327   1.401       .  A
C2326      F2331   1.358       .  S
C2327      C2328   1.412       .  A
C2327      F2333   1.357       .  S
C2328      C2329   1.414       .  A
C2329      C2330   1.398       .  A
C2329      F2332   1.357       .  S
C2330      F2334   1.358       .  S
C2337      C2338   1.402       .  A
C2337      C2342   1.399       .  A
C2337      F2355   1.358       .  S
C2338      C2339   1.403       .  A
C2338      C2343   1.478       .  S
C2339      C2340   1.400       .  A
C2339      F2344   1.358       .  S
C2340      C2341   1.410       .  A
C2340      F2356   1.357       .  S
C2341      C2342   1.410       .  A
C2342      F2345   1.357       .  S
C2343      C2346   1.403       .  A
C2343      C2350   1.402       .  A
C2346      C2347   1.400       .  A
C2346      F2351   1.358       .  S
C2347      C2348   1.411       .  A
C2347      F2353   1.358       .  S
C2348      C2349   1.411       .  A
C2349      C2350   1.399       .  A
C2349      F2352   1.358       .  S
C2350      F2354   1.358       .  S
C2357      C2358   1.404       .  A
C2357      C2362   1.399       .  A
C2357      F2375   1.358       .  S
C2358      C2359   1.405       .  A
C2358      C2363   1.480       .  S
C2359      C2360   1.399       .  A
C2359      F2364   1.358       .  S
C2360      C2361   1.407       .  A
C2360      F2376   1.357       .  S
C2361      C2362   1.408       .  A
C2362      F2365   1.358       .  S
C2363      C2366   1.402       .  A
C2363      C2370   1.403       .  A
C2366      C2367   1.398       .  A
C2366      F2371   1.358       .  S
C2367      C2368   1.414       .  A
C2367      F2373   1.357       .  S
C2368      C2369   1.413       .  A
C2369      C2370   1.399       .  A
C2369      F2372   1.357       .  S
C2370      F2374   1.358       .  S
C2377      C2378   1.404       .  A
C2377      C2382   1.400       .  A
C2377      F2395   1.358       .  S
C2378      C2379   1.403       .  A
C2378      C2383   1.480       .  S
C2379      C2380   1.396       .  A
C2379      F2384   1.358       .  S
C2380      C2381   1.409       .  A
C2380      F2396   1.357       .  S
C2381      C2382   1.411       .  A
C2382      F2385   1.357       .  S
C2383      C2386   1.403       .  A
C2383      C2390   1.404       .  A
C2386      C2387   1.397       .  A
C2386      F2391   1.358       .  S
C2387      C2388   1.410       .  A
C2387      F2393   1.357       .  S
C2388      C2389   1.410       .  A
C2389      C2390   1.400       .  A
C2389      F2392   1.358       .  S
C2390      F2394   1.358       .  S
C2397      C2398   1.404       .  A
C2397      C2402   1.397       .  A
C2397      F2415   1.358       .  S
C2398      C2399   1.406       .  A
C2398      C2403   1.483       .  S
C2399      C2400   1.402       .  A
C2399      F2404   1.358       .  S
C2400      C2401   1.410       .  A
C2400      F2416   1.358       .  S
C2401      C2402   1.409       .  A
C2402      F2405   1.358       .  S
C2403      C2406   1.405       .  A
C2403      C2410   1.404       .  A
C2406      C2407   1.399       .  A
C2406      F2411   1.358       .  S
C2407      C2408   1.409       .  A
C2407      F2413   1.357       .  S
C2408      C2409   1.411       .  A
C2409      C2410   1.399       .  A
C2409      F2412   1.357       .  S
C2410      F2414   1.358       .  S
C2417      C2418   1.404       .  A
C2417      C2422   1.400       .  A
C2417      F2435   1.358       .  S
C2418      C2419   1.404       .  A
C2418      C2423   1.481       .  S
C2419      C2420   1.399       .  A
C2419      F2424   1.358       .  S
C2420      C2421   1.410       .  A
C2420      F2436   1.357       .  S
C2421      C2422   1.409       .  A
C2422      F2425   1.357       .  S
C2423      C2426   1.403       .  A
C2423      C2430   1.404       .  A
C2426      C2427   1.399       .  A
C2426      F2431   1.358       .  S
C2427      C2428   1.412       .  A
C2427      F2433   1.358       .  S
C2428      C2429   1.411       .  A
C2429      C2430   1.400       .  A
C2429      F2432   1.357       .  S
C2430      F2434   1.358       .  S
C2437      C2438   1.402       .  A
C2437      C2442   1.397       .  A
C2437      F2455   1.358       .  S
C2438      C2439   1.403       .  A
C2438      C2443   1.474       .  S
C2439      C2440   1.398       .  A
C2439      F2444   1.358       .  S
C2440      C2441   1.409       .  A
C2440      F2456   1.358       .  S
C2441      C2442   1.410       .  A
C2442      F2445   1.358       .  S
C2443      C2446   1.404       .  A
C2443      C2450   1.402       .  A
C2446      C2447   1.399       .  A
C2446      F2451   1.358       .  S
C2447      C2448   1.408       .  A
C2447      F2453   1.358       .  S
C2448      C2449   1.407       .  A
C2449      C2450   1.397       .  A
C2449      F2452   1.357       .  S
C2450      F2454   1.358       .  S
C2457      C2458   1.406       .  A
C2457      C2462   1.397       .  A
C2457      F2475   1.358       .  S
C2458      C2459   1.405       .  A
C2458      C2463   1.483       .  S
C2459      C2460   1.400       .  A
C2459      F2464   1.358       .  S
C2460      C2461   1.411       .  A
C2460      F2476   1.358       .  S
C2461      C2462   1.408       .  A
C2462      F2465   1.358       .  S
C2463      C2466   1.405       .  A
C2463      C2470   1.406       .  A
C2466      C2467   1.396       .  A
C2466      F2471   1.358       .  S
C2467      C2468   1.407       .  A
C2467      F2473   1.357       .  S
C2468      C2469   1.409       .  A
C2469      C2470   1.401       .  A
C2469      F2472   1.358       .  S
C2470      F2474   1.358       .  S
C2477      C2478   1.407       .  A
C2477      C2482   1.399       .  A
C2477      F2495   1.358       .  S
C2478      C2479   1.406       .  A
C2478      C2483   1.488       .  S
C2479      C2480   1.402       .  A
C2479      F2484   1.358       .  S
C2480      C2481   1.410       .  A
C2480      F2496   1.357       .  S
C2481      C2482   1.407       .  A
C2482      F2485   1.357       .  S
C2483      C2486   1.405       .  A
C2483      C2490   1.406       .  A
C2486      C2487   1.399       .  A
C2486      F2491   1.358       .  S
C2487      C2488   1.410       .  A
C2487      F2493   1.357       .  S
C2488      C2489   1.412       .  A
C2489      C2490   1.403       .  A
C2489      F2492   1.358       .  S
C2490      F2494   1.358       .  S
C2497      C2498   1.403       .  A
C2497      C2502   1.398       .  A
C2497      F2515   1.358       .  S
C2498      C2499   1.403       .  A
C2498      C2503   1.476       .  S
C2499      C2500   1.399       .  A
C2499      F2504   1.358       .  S
C2500      C2501   1.409       .  A
C2500      F2516   1.358       .  S
C2501      C2502   1.408       .  A
C2502      F2505   1.357       .  S
C2503      C2506   1.403       .  A
C2503      C2510   1.401       .  A
C2506      C2507   1.399       .  A
C2506      F2511   1.358       .  S
C2507      C2508   1.411       .  A
C2507      F2513   1.358       .  S
C2508      C2509   1.411       .  A
C2509      C2510   1.397       .  A
C2509      F2512   1.357       .  S
C2510      F2514   1.358       .  S
C2517      C2518   1.406       .  A
C2517      C2522   1.399       .  A
C2517      F2535   1.358       .  S
C2518      C2519   1.404       .  A
C2518      C2523   1.480       .  S
C2519      C2520   1.396       .  A
C2519      F2524   1.358       .  S
C2520      C2521   1.407       .  A
C2520      F2536   1.357       .  S
C2521      C2522   1.408       .  A
C2522      F2525   1.358       .  S
C2523      C2526   1.403       .  A
C2523      C2530   1.405       .  A
C2526      C2527   1.398       .  A
C2526      F2531   1.358       .  S
C2527      C2528   1.411       .  A
C2527      F2533   1.358       .  S
C2528      C2529   1.410       .  A
C2529      C2530   1.398       .  A
C2529      F2532   1.358       .  S
C2530      F2534   1.358       .  S
C2537      C2538   1.402       .  A
C2537      C2542   1.394       .  A
C2537      F2555   1.358       .  S
C2538      C2539   1.403       .  A
C2538      C2543   1.472       .  S
C2539      C2540   1.397       .  A
C2539      F2544   1.358       .  S
C2540      C2541   1.409       .  A
C2540      F2556   1.358       .  S
C2541      C2542   1.409       .  A
C2542      F2545   1.357       .  S
C2543      C2546   1.403       .  A
C2543      C2550   1.401       .  A
C2546      C2547   1.396       .  A
C2546      F2551   1.358       .  S
C2547      C2548   1.409       .  A
C2547      F2553   1.357       .  S
C2548      C2549   1.411       .  A
C2549      C2550   1.396       .  A
C2549      F2552   1.357       .  S
C2550      F2554   1.358       .  S
C2557      C2558   1.405       .  A
C2557      C2562   1.399       .  A
C2557      F2575   1.358       .  S
C2558      C2559   1.406       .  A
C2558      C2563   1.483       .  S
C2559      C2560   1.399       .  A
C2559      F2564   1.358       .  S
C2560      C2561   1.407       .  A
C2560      F2576   1.357       .  S
C2561      C2562   1.409       .  A
C2562      F2565   1.358       .  S
C2563      C2566   1.404       .  A
C2563      C2570   1.404       .  A
C2566      C2567   1.397       .  A
C2566      F2571   1.358       .  S
C2567      C2568   1.412       .  A
C2567      F2573   1.358       .  S
C2568      C2569   1.413       .  A
C2569      C2570   1.400       .  A
C2569      F2572   1.358       .  S
C2570      F2574   1.358       .  S
C2577      C2578   1.408       .  A
C2577      C2582   1.401       .  A
C2577      F2595   1.358       .  S
C2578      C2579   1.408       .  A
C2578      C2583   1.490       .  S
C2579      C2580   1.401       .  A
C2579      F2584   1.358       .  S
C2580      C2581   1.407       .  A
C2580      F2596   1.358       .  S
C2581      C2582   1.406       .  A
C2582      F2585   1.358       .  S
C2583      C2586   1.405       .  A
C2583      C2590   1.406       .  A
C2586      C2587   1.400       .  A
C2586      F2591   1.358       .  S
C2587      C2588   1.416       .  A
C2587      F2593   1.358       .  S
C2588      C2589   1.413       .  A
C2589      C2590   1.402       .  A
C2589      F2592   1.357       .  S
C2590      F2594   1.358       .  S
C2597      C2598   1.407       .  A
C2597      C2602   1.402       .  A
C2597      F2615   1.358       .  S
C2598      C2599   1.406       .  A
C2598      C2603   1.486       .  S
C2599      C2600   1.398       .  A
C2599      F2604   1.358       .  S
C2600      C2601   1.407       .  A
C2600      F2616   1.357       .  S
C2601      C2602   1.409       .  A
C2602      F2605   1.358       .  S
C2603      C2606   1.406       .  A
C2603      C2610   1.406       .  A
C2606      C2607   1.401       .  A
C2606      F2611   1.358       .  S
C2607      C2608   1.409       .  A
C2607      F2613   1.358       .  S
C2608      C2609   1.407       .  A
C2609      C2610   1.399       .  A
C2609      F2612   1.358       .  S
C2610      F2614   1.358       .  S
C2617      C2618   1.406       .  A
C2617      C2622   1.398       .  A
C2617      F2635   1.358       .  S
C2618      C2619   1.407       .  A
C2618      C2623   1.485       .  S
C2619      C2620   1.399       .  A
C2619      F2624   1.358       .  S
C2620      C2621   1.406       .  A
C2620      F2636   1.358       .  S
C2621      C2622   1.407       .  A
C2622      F2625   1.358       .  S
C2623      C2626   1.405       .  A
C2623      C2630   1.405       .  A
C2626      C2627   1.398       .  A
C2626      F2631   1.358       .  S
C2627      C2628   1.413       .  A
C2627      F2633   1.358       .  S
C2628      C2629   1.413       .  A
C2629      C2630   1.399       .  A
C2629      F2632   1.358       .  S
C2630      F2634   1.358       .  S
C2637      C2638   1.405       .  A
C2637      C2642   1.399       .  A
C2637      F2655   1.358       .  S
C2638      C2639   1.403       .  A
C2638      C2643   1.479       .  S
C2639      C2640   1.396       .  A
C2639      F2644   1.358       .  S
C2640      C2641   1.409       .  A
C2640      F2656   1.357       .  S
C2641      C2642   1.409       .  A
C2642      F2645   1.357       .  S
C2643      C2646   1.403       .  A
C2643      C2650   1.404       .  A
C2646      C2647   1.398       .  A
C2646      F2651   1.358       .  S
C2647      C2648   1.411       .  A
C2647      F2653   1.358       .  S
C2648      C2649   1.410       .  A
C2649      C2650   1.397       .  A
C2649      F2652   1.358       .  S
C2650      F2654   1.358       .  S
C2657      C2658   1.404       .  A
C2657      C2662   1.400       .  A
C2657      F2675   1.358       .  S
C2658      C2659   1.402       .  A
C2658      C2663   1.477       .  S
C2659      C2660   1.398       .  A
C2659      F2664   1.358       .  S
C2660      C2661   1.409       .  A
C2660      F2676   1.357       .  S
C2661      C2662   1.408       .  A
C2662      F2665   1.358       .  S
C2663      C2666   1.402       .  A
C2663      C2670   1.403       .  A
C2666      C2667   1.399       .  A
C2666      F2671   1.358       .  S
C2667      C2668   1.410       .  A
C2667      F2673   1.357       .  S
C2668      C2669   1.410       .  A
C2669      C2670   1.400       .  A
C2669      F2672   1.358       .  S
C2670      F2674   1.358       .  S
C2677      C2678   1.403       .  A
C2677      C2682   1.399       .  A
C2677      F2695   1.358       .  S
C2678      C2679   1.402       .  A
C2678      C2683   1.478       .  S
C2679      C2680   1.398       .  A
C2679      F2684   1.358       .  S
C2680      C2681   1.413       .  A
C2680      F2696   1.358       .  S
C2681      C2682   1.413       .  A
C2682      F2685   1.357       .  S
C2683      C2686   1.403       .  A
C2683      C2690   1.406       .  A
C2686      C2687   1.397       .  A
C2686      F2691   1.358       .  S
C2687      C2688   1.407       .  A
C2687      F2693   1.358       .  S
C2688      C2689   1.405       .  A
C2689      C2690   1.400       .  A
C2689      F2692   1.358       .  S
C2690      F2694   1.358       .  S
C2697      C2698   1.404       .  A
C2697      C2702   1.397       .  A
C2697      F2715   1.358       .  S
C2698      C2699   1.406       .  A
C2698      C2703   1.483       .  S
C2699      C2700   1.400       .  A
C2699      F2704   1.358       .  S
C2700      C2701   1.408       .  A
C2700      F2716   1.358       .  S
C2701      C2702   1.408       .  A
C2702      F2705   1.357       .  S
C2703      C2706   1.406       .  A
C2703      C2710   1.404       .  A
C2706      C2707   1.400       .  A
C2706      F2711   1.358       .  S
C2707      C2708   1.408       .  A
C2707      F2713   1.357       .  S
C2708      C2709   1.411       .  A
C2709      C2710   1.399       .  A
C2709      F2712   1.358       .  S
C2710      F2714   1.358       .  S
C2717      C2718   1.404       .  A
C2717      C2722   1.397       .  A
C2717      F2735   1.358       .  S
C2718      C2719   1.405       .  A
C2718      C2723   1.476       .  S
C2719      C2720   1.395       .  A
C2719      F2724   1.358       .  S
C2720      C2721   1.406       .  A
C2720      F2736   1.358       .  S
C2721      C2722   1.407       .  A
C2722      F2725   1.358       .  S
C2723      C2726   1.404       .  A
C2723      C2730   1.403       .  A
C2726      C2727   1.398       .  A
C2726      F2731   1.358       .  S
C2727      C2728   1.410       .  A
C2727      F2733   1.358       .  S
C2728      C2729   1.410       .  A
C2729      C2730   1.395       .  A
C2729      F2732   1.358       .  S
C2730      F2734   1.358       .  S
