geometry optimzed in LAMMPS
_audit_creation_date              2020-12-01 
_audit_creation_method            'lammps2cif' 
_symmetry_space_group_name_H-M    'P1' 
_symmetry_Int_Tables_number       1 
_symmetry_cell_setting            triclinic 
loop_ 
_symmetry_equiv_pos_as_xyz 
  x,y,z 
_cell_length_a                    39.78788946 
_cell_length_b                    39.99255959892681 
_cell_length_c                    32.26863512505589 
_cell_angle_alpha                 90.844727670885 
_cell_angle_beta                  90.08735188113226 
_cell_angle_gamma                 89.3935333554663 
loop_ 
_atom_site_label 
_atom_site_type_symbol 
_atom_site_fract_x 
_atom_site_fract_y 
_atom_site_fract_z 
_atom_site_charge 
O1          O  0.02959352  0.28300248  0.54579325    -0.73700
O2          O  0.03120172  0.21684800  0.45885001    -0.73800
O3          O  0.03161258  0.28509399  0.46189312    -0.73800
O4          O  0.02908873  0.21556412  0.54222420    -0.73900
O5          O  0.47301649  0.21644197  0.53943819    -0.73800
O6          O  0.47558672  0.28655201  0.46035448    -0.73800
O7          O  0.47521885  0.21832033  0.45600934    -0.73700
O8          O  0.47372943  0.28431495  0.54377723    -0.73800
Ni9        Ni  0.03236500  0.25015650  0.50215502     1.25400
Ni10       Ni  0.47238841  0.25146676  0.49974806     1.25400
C11         C  0.00149868  0.29470661  0.55922774     0.88500
C12         C  0.50349838  0.20589222  0.44406776     0.88400
C13         C  0.50399781  0.29772544  0.44863399     0.88400
C14         C  0.00059734  0.20431372  0.55355639     0.88600
C15         C  0.99895859  0.99741980  0.25058986    -0.01800
C16         C  0.99868997  0.00377387  0.74943203    -0.01800
O17         O  0.28326809  0.02882408  0.96067704    -0.73700
O18         O  0.21479594  0.02580323  0.04388929    -0.73800
O19         O  0.28331051  0.02368611  0.04340718    -0.73800
O20         O  0.21502563  0.03185775  0.96088773    -0.73900
O21         O  0.21349803  0.47648296  0.95377822    -0.73800
O22         O  0.28210398  0.46821674  0.03696582    -0.73800
O23         O  0.21344952  0.47041577  0.03681918    -0.73700
O24         O  0.28120864  0.47359880  0.95379191    -0.73800
Ni25       Ni  0.24910916  0.02952676  0.00252253     1.25400
Ni26       Ni  0.24749016  0.47018885  0.99520919     1.25400
C27         C  0.29398380  0.00140010  0.94409655     0.88500
C28         C  0.20238756  0.49765835  0.05324417     0.88400
C29         C  0.29489148  0.49488515  0.05263048     0.88400
C30         C  0.20297815  0.00548267  0.94393624     0.88600
C31         C  0.11660149  0.52090433  0.89829955    -0.04800
C32         C  0.12171647  0.01111855  0.85619651     0.09400
C33         C  0.15446071  0.00200604  0.84268673    -0.02100
C34         C  0.18108772  0.99986645  0.87145157    -0.00400
C35         C  0.17564644  0.00883836  0.91331170    -0.04000
C36         C  0.14377557  0.52091437  0.92630412     0.03000
C37         C  0.09258905  0.00984419  0.82650520     0.09800
C38         C  0.16082209  0.99508440  0.79911226     0.35700
C39         C  0.13884210  0.53290224  0.96858597     0.39200
C40         C  0.07424375  0.03885882  0.81701916    -0.04400
C41         C  0.04344295  0.03654286  0.79524000     0.02800
C42         C  0.03371314  0.00590126  0.77411426    -0.04000
C43         C  0.05812351  0.47891266  0.77687983    -0.00200
C44         C  0.08333423  0.47950205  0.80763761    -0.02800
C45         C  0.08661428  0.07121827  0.83097455     0.36500
C46         C  0.06267067  0.45294840  0.74561748     0.40100
C47         C  0.02179527  0.06580249  0.79854155     0.39200
C48         C  0.10008674  0.44856713  0.81935168     0.36200
C49         C  0.08348729  0.53067431  0.91319004     0.36800
C50         C  0.21430873  0.98915818  0.85789561     0.40100
N51         N  0.00660493  0.09033791  0.80376213    -0.38000
N52         N  0.09651562  0.09697296  0.84196889    -0.39600
N53         N  0.06839761  0.43219864  0.72117832    -0.37300
N54         N  0.11329306  0.42392224  0.82887373    -0.39700
N55         N  0.16579880  0.98946312  0.76436330    -0.39500
N56         N  0.24084489  0.98063694  0.84721596    -0.37100
N57         N  0.13484959  0.54286687  0.00209100    -0.38200
N58         N  0.05741847  0.53896508  0.92573124    -0.39800
C59         C  0.37414145  0.47656457  0.88637642    -0.04800
C60         C  0.37835382  0.00398044  0.86020324     0.09400
C61         C  0.35418413  0.03004540  0.86015925    -0.02100
C62         C  0.32608698  0.02882268  0.88663584    -0.00400
C63         C  0.32231348  0.00176972  0.91402749    -0.04000
C64         C  0.34641703  0.47548929  0.91329452     0.03000
C65         C  0.40839712  0.00498877  0.83251152     0.09800
C66         C  0.35802736  0.05817313  0.83278193     0.35700
C67         C  0.34351854  0.44732396  0.94092212     0.39200
C68         C  0.40526604  0.99729416  0.79029541    -0.04400
C69         C  0.43359867  0.99805012  0.76395951     0.02800
C70         C  0.46715825  0.00298955  0.78021772    -0.04000
C71         C  0.46946537  0.50576046  0.82493668    -0.00200
C72         C  0.44038059  0.51052000  0.84942101    -0.03200
C73         C  0.37224736  0.98920084  0.77375156     0.36500
C74         C  0.49959568  0.49861257  0.84852608     0.40100
C75         C  0.42616739  0.99627784  0.72003736     0.39200
C76         C  0.44327635  0.51959635  0.89313377     0.36200
C77         C  0.39850490  0.44924310  0.88558669     0.36800
C78         C  0.30057520  0.05496263  0.88445916     0.40100
N79         N  0.41695664  0.99512533  0.68601581    -0.38000
N80         N  0.34595225  0.98272686  0.76074053    -0.39600
N81         N  0.02220176  0.49160598  0.86931910    -0.37300
N82         N  0.44552878  0.52688333  0.92786611    -0.39700
N83         N  0.36036543  0.08079238  0.81106592    -0.39500
N84         N  0.28022661  0.07578704  0.88257563    -0.37100
N85         N  0.34119857  0.42471487  0.96267814    -0.38200
N86         N  0.41803388  0.42758835  0.88500473    -0.39800
C87         C  0.06095957  0.01823535  0.15851095    -0.04800
C88         C  0.08810473  0.99634077  0.16506163     0.09400
C89         C  0.08597636  0.47228080  0.19588302    -0.02100
C90         C  0.05645498  0.46952959  0.21991749    -0.00400
C91         C  0.02998396  0.99473498  0.21870708    -0.04000
C92         C  0.03266986  0.01825949  0.18517242     0.03000
C93         C  0.11812890  0.49642959  0.13688192     0.09800
C94         C  0.11396580  0.44901321  0.20145399     0.35700
C95         C  0.00836927  0.04497953  0.17883409     0.39200
C96         C  0.14849200  0.51172404  0.14919051    -0.04400
C97         C  0.17613563  0.51199857  0.12190072     0.02800
C98         C  0.17383080  0.49639824  0.08253317    -0.04000
C99         C  0.14370973  0.97975384  0.07080540    -0.00200
C100        C  0.11590038  0.98004890  0.09778448    -0.02800
C101        C  0.15190337  0.52643454  0.19025053     0.36500
C102        C  0.14106147  0.96318357  0.03061582     0.40100
C103        C  0.20745635  0.52722573  0.13493689     0.39200
C104        C  0.08515694  0.96325940  0.08570091     0.36200
C105        C  0.06295258  0.04194549  0.12487825     0.36800
C106        C  0.05322985  0.43767353  0.24004012     0.40100
N107        N  0.23251241  0.53923479  0.14525261    -0.38000
N108        N  0.15586779  0.53801442  0.22293757    -0.39600
N109        N  0.13883509  0.94996733  0.99859475    -0.37300
N110        N  0.06057005  0.94992446  0.07625914    -0.39700
N111        N  0.13629539  0.43064306  0.20597786    -0.39500
N112        N  0.05209210  0.41126093  0.25405286    -0.37100
N113        N  0.99058330  0.06719528  0.17143875    -0.38200
N114        N  0.06458762  0.06070250  0.09800621    -0.39800
C115        C  0.38153900  0.00941831  0.09849674    -0.04800
C116        C  0.37949447  0.99242563  0.13640331     0.09400
C117        C  0.35055377  0.47443588  0.14529325    -0.02100
C118        C  0.32295770  0.47443272  0.11765778    -0.00400
C119        C  0.32439764  0.49276531  0.08069741    -0.04000
C120        C  0.35392657  0.00974429  0.07106615     0.03000
C121        C  0.40862930  0.99352513  0.16606085     0.09800
C122        C  0.34842917  0.45628728  0.18368576     0.35700
C123        C  0.35658750  0.02702565  0.03196302     0.39200
C124        C  0.41247520  0.52065252  0.19300037    -0.04400
C125        C  0.44110513  0.52358138  0.21908254     0.02800
C126        C  0.46650361  0.99736275  0.22071348    -0.04000
C127        C  0.46233663  0.97062185  0.19033198    -0.00200
C128        C  0.43386137  0.96900565  0.16395845    -0.02800
C129        C  0.38654889  0.54662903  0.19305627     0.36500
C130        C  0.48550770  0.94253461  0.18672022     0.40100
C131        C  0.44410165  0.55579093  0.23970806     0.39200
C132        C  0.42996332  0.94137248  0.13456334     0.36200
C133        C  0.41224070  0.02651569  0.08773281     0.36800
C134        C  0.29269662  0.45639324  0.12783270     0.40100
N135        N  0.44504979  0.58237923  0.25427789    -0.38000
N136        N  0.36599403  0.56731959  0.19285022    -0.39600
N137        N  0.00179058  0.91881094  0.18109222    -0.37300
N138        N  0.42668123  0.91938499  0.11124133    -0.39700
N139        N  0.34602971  0.44157790  0.21412381    -0.39500
N140        N  0.26854597  0.44196809  0.13582058    -0.37100
N141        N  0.35882940  0.04081050  0.00081685    -0.38200
N142        N  0.43679349  0.04003862  0.07918273    -0.39800
C143        C  0.52619248  0.43551275  0.33976026    -0.04800
C144        C  0.00315612  0.40935367  0.33533110     0.09400
C145        C  0.97670845  0.41242356  0.30701300    -0.02100
C146        C  0.97249271  0.44186205  0.28370447    -0.00400
C147        C  0.99840805  0.46702705  0.28246387    -0.04000
C148        C  0.52428349  0.46384197  0.31388812     0.03000
C149        C  0.00418329  0.38046484  0.36445970     0.09800
C150        C  0.95273025  0.38532955  0.30310188     0.35700
C151        C  0.55100742  0.48790137  0.31903793     0.39200
C152        C  0.48860419  0.38381758  0.40360044    -0.04400
C153        C  0.48884599  0.35684909  0.43123857     0.02800
C154        C  0.00457235  0.32623045  0.41986550    -0.04000
C155        C  0.02057869  0.32298237  0.38100083    -0.00200
C156        C  0.02023888  0.34996823  0.35325024    -0.02800
C157        C  0.47209394  0.41510022  0.41521204     0.36500
C158        C  0.03658192  0.29150298  0.36913321     0.40100
C159        C  0.47369183  0.36096091  0.47191295     0.39200
C160        C  0.03603305  0.34597840  0.31304672     0.36200
C161        C  0.55302968  0.43228567  0.37011523     0.36800
C162        C  0.93890634  0.44672390  0.26732782     0.40100
N163        N  0.46171960  0.36434022  0.50439214    -0.38000
N164        N  0.45899603  0.44013563  0.42421851    -0.39600
N165        N  0.04931169  0.26634927  0.35981887    -0.37300
N166        N  0.04874531  0.34185147  0.28112785    -0.39700
N167        N  0.93377357  0.36370026  0.29977175    -0.39500
N168        N  0.91145434  0.44980658  0.25602140    -0.37100
N169        N  0.57360108  0.00544611  0.32509381    -0.38200
N170        N  0.57441453  0.42949835  0.39420048    -0.39800
C171        C  0.02478833  0.08627151  0.29971110    -0.04800
C172        C  0.00174195  0.09020992  0.33205728     0.09400
C173        C  0.47976676  0.06411910  0.34050559    -0.02100
C174        C  0.47827576  0.03541734  0.31416348    -0.00400
C175        C  0.00131337  0.03041495  0.27990438    -0.04000
C176        C  0.02696839  0.05581056  0.27686712     0.03000
C177        C  0.00296538  0.12063753  0.35994613     0.09800
C178        C  0.45803453  0.06721710  0.37656838     0.35700
C179        C  0.05908673  0.05049327  0.25688468     0.39200
C180        C  0.48604727  0.15050465  0.34918651    -0.04400
C181        C  0.48660298  0.17863502  0.37624620     0.02800
C182        C  0.00411954  0.17709559  0.41426980    -0.04000
C183        C  0.02167357  0.14737011  0.42457718    -0.00200
C184        C  0.02140807  0.11947386  0.39729648    -0.02800
C185        C  0.46824590  0.15245529  0.31008213     0.36500
C186        C  0.03874242  0.14478841  0.46420783     0.40100
C187        C  0.46975584  0.20942245  0.36449689     0.39200
C188        C  0.04023288  0.08942900  0.40754711     0.36200
C189        C  0.04810825  0.11324384  0.29175174     0.36800
C190        C  0.45100144  0.01276369  0.32238860     0.40100
N191        N  0.45640741  0.23402842  0.35511239    -0.38000
N192        N  0.45409377  0.15454943  0.27885902    -0.39600
N193        N  0.05215938  0.14258336  0.49591767    -0.37300
N194        N  0.05533703  0.06548342  0.41552692    -0.39700
N195        N  0.44108234  0.06968559  0.40558633    -0.39500
N196        N  0.42828704  0.99667872  0.33165092    -0.37100
N197        N  0.08572091  0.04775591  0.24290047    -0.38200
N198        N  0.06661576  0.13467659  0.28530455    -0.39800
C199        C  0.47247942  0.35129047  0.64944656    -0.04800
C200        C  0.99825754  0.37529168  0.65079175     0.09400
C201        C  0.02633530  0.37126767  0.62438221    -0.02100
C202        C  0.02745530  0.34510474  0.59465087    -0.00400
C203        C  0.00125528  0.32132810  0.59239841    -0.04000
C204        C  0.47442509  0.32395004  0.62124577     0.03000
C205        C  0.99436087  0.40700642  0.67607626     0.09800
C206        C  0.05357671  0.39513125  0.62652593     0.35700
C207        C  0.44892329  0.29832371  0.62260133     0.39200
C208        C  0.49553057  0.40710174  0.71942296    -0.04400
C209        C  0.49365601  0.43759942  0.74243533     0.02800
C210        C  0.99531063  0.46964668  0.72230034    -0.04000
C211        C  0.99087909  0.46818936  0.67766435    -0.00200
C212        C  0.98980022  0.43733624  0.65568983    -0.02800
C213        C  0.50090038  0.37560306  0.74046371     0.36500
C214        C  0.98356572  0.49684993  0.65233582     0.40100
C215        C  0.49278891  0.43443971  0.78711931     0.39200
C216        C  0.98325224  0.43648775  0.61116906     0.36200
C217        C  0.44338556  0.35527778  0.67619037     0.36800
C218        C  0.05484150  0.34420290  0.56494847     0.40100
N219        N  0.49191843  0.42920329  0.82227068    -0.38000
N220        N  0.50541267  0.35053546  0.75716354    -0.39600
N221        N  0.97678952  0.01838066  0.62997737    -0.37300
N222        N  0.97795417  0.43576571  0.57589335    -0.39700
N223        N  0.07523368  0.41421112  0.62781433    -0.39500
N224        N  0.07667080  0.34368778  0.54127366    -0.37100
N225        N  0.42863646  0.27783398  0.62388393    -0.38200
N226        N  0.42025345  0.35841855  0.69765154    -0.39800
C227        C  0.48241891  0.11911498  0.59769349    -0.04800
C228        C  0.99887785  0.12114437  0.63646105     0.09400
C229        C  0.01490450  0.15107639  0.64858900    -0.02100
C230        C  0.01529975  0.17849108  0.62163552    -0.00400
C231        C  0.99951044  0.17610389  0.58252289    -0.04000
C232        C  0.48286188  0.14646918  0.57074385     0.03000
C233        C  0.99875532  0.09214889  0.66523261     0.09800
C234        C  0.03039182  0.15377696  0.68921856     0.35700
C235        C  0.46689521  0.14369617  0.53032844     0.39200
C236        C  0.02616879  0.06995866  0.66639448    -0.04400
C237        C  0.02646283  0.04269813  0.69391192     0.02800
C238        C  0.99853904  0.03659483  0.72137414    -0.04000
C239        C  0.47286514  0.06268556  0.72268812    -0.00200
C240        C  0.47233105  0.08864859  0.69337604    -0.02800
C241        C  0.05366430  0.07448944  0.63744493     0.36500
C242        C  0.44941976  0.06750595  0.75659986     0.40100
C243        C  0.05526654  0.02029304  0.69077371     0.39200
C244        C  0.44497888  0.11312573  0.69313156     0.36200
C245        C  0.46462953  0.08916653  0.58531515     0.36800
C246        C  0.03088779  0.20955078  0.63468830     0.40100
N247        N  0.07928001  0.00410646  0.68614705    -0.38000
N248        N  0.07540905  0.07804530  0.61419586    -0.39600
N249        N  0.43102876  0.07344495  0.78352339    -0.37300
N250        N  0.42329891  0.13264178  0.69292321    -0.39700
N251        N  0.04256834  0.15584937  0.72173236    -0.39500
N252        N  0.04315781  0.23442621  0.64504866    -0.37100
N253        N  0.45417858  0.14139302  0.49814712    -0.38200
N254        N  0.44981026  0.06600115  0.57406626    -0.39800
O255        O  0.02959333  0.78294432  0.54607746    -0.73700
O256        O  0.03123923  0.71671274  0.45920869    -0.73800
O257        O  0.03173533  0.78496972  0.46219168    -0.73800
O258        O  0.02903109  0.71550519  0.54256580    -0.73900
O259        O  0.47297525  0.71646844  0.53973061    -0.73800
O260        O  0.47572725  0.78644316  0.46046767    -0.73800
O261        O  0.47526862  0.71822951  0.45631106    -0.73700
O262        O  0.47374554  0.78434537  0.54390250    -0.73800
Ni263      Ni  0.03239081  0.75006040  0.50247993     1.25400
Ni264      Ni  0.47243053  0.75143420  0.49995627     1.25400
C265        C  0.00149025  0.79471166  0.55940604     0.88500
C266        C  0.50354511  0.70577481  0.44441495     0.88400
C267        C  0.50416588  0.79760273  0.44881149     0.88400
C268        C  0.00051587  0.70430150  0.55387017     0.88600
C269        C  0.99901870  0.49757592  0.25052539    -0.01800
C270        C  0.99874642  0.50362797  0.74945543    -0.01800
O271        O  0.28327968  0.52900999  0.96054923    -0.73700
O272        O  0.21496386  0.52597279  0.04396895    -0.73800
O273        O  0.28349023  0.52382928  0.04325679    -0.73800
O274        O  0.21503340  0.53207702  0.96096428    -0.73900
O275        O  0.21352593  0.97626187  0.95372393    -0.73800
O276        O  0.28195215  0.96806812  0.03718651    -0.73800
O277        O  0.21329521  0.97024306  0.03678001    -0.73700
O278        O  0.28125322  0.97340879  0.95396785    -0.73800
Ni279      Ni  0.24919941  0.52970918  0.00249526     1.25400
Ni280      Ni  0.24743618  0.97000331  0.99528401     1.25400
C281        C  0.29396028  0.50158247  0.94394131     0.88500
C282        C  0.20220815  0.99749432  0.05316006     0.88400
C283        C  0.29468249  0.99475402  0.05288309     0.88400
C284        C  0.20295402  0.50571119  0.94402636     0.88600
C285        C  0.11666048  0.02084004  0.89815985    -0.04800
C286        C  0.12166561  0.51115865  0.85634482     0.09400
C287        C  0.15442358  0.50212361  0.84281908    -0.02100
C288        C  0.18106822  0.50008599  0.87156295    -0.00400
C289        C  0.17562031  0.50906954  0.91341684    -0.04000
C290        C  0.14381870  0.02074400  0.92618746     0.03000
C291        C  0.09254783  0.50983165  0.82665359     0.09800
C292        C  0.16077867  0.49516861  0.79925061     0.35700
C293        C  0.13887935  0.03268180  0.96848893     0.39200
C294        C  0.07419318  0.53882725  0.81711951    -0.04400
C295        C  0.04342499  0.53647611  0.79528295     0.02800
C296        C  0.03375380  0.50581666  0.77415302    -0.04000
C297        C  0.05805553  0.97896648  0.77680112    -0.00200
C298        C  0.08331917  0.97952929  0.80749695    -0.02800
C299        C  0.08652441  0.57120284  0.83107343     0.36500
C300        C  0.06251425  0.95297369  0.74555985     0.40100
C301        C  0.02175099  0.56571982  0.79852955     0.39200
C302        C  0.10007231  0.94857815  0.81915190     0.36200
C303        C  0.08356999  0.03071017  0.91303490     0.36800
C304        C  0.21431600  0.48947713  0.85798989     0.40100
N305        N  0.00654114  0.59024806  0.80371334    -0.38000
N306        N  0.09639969  0.59696934  0.84206158    -0.39600
N307        N  0.06818058  0.93218867  0.72114720    -0.37300
N308        N  0.11328534  0.92392227  0.82861897    -0.39700
N309        N  0.16574760  0.48951761  0.76450691    -0.39500
N310        N  0.24087490  0.48104200  0.84729619    -0.37100
N311        N  0.13487446  0.04260490  0.00200956    -0.38200
N312        N  0.05752337  0.03909014  0.92555931    -0.39800
C313        C  0.37406647  0.97639154  0.88627323    -0.04800
C314        C  0.37843632  0.50411059  0.86024063     0.09400
C315        C  0.35425426  0.53016433  0.86009235    -0.02100
C316        C  0.32611768  0.52895757  0.88650461    -0.00400
C317        C  0.32230860  0.50192502  0.91391176    -0.04000
C318        C  0.34640953  0.97532330  0.91330410     0.03000
C319        C  0.40846909  0.50504522  0.83253576     0.09800
C320        C  0.35813256  0.55827538  0.83269892     0.35700
C321        C  0.34358234  0.94716785  0.94095754     0.39200
C322        C  0.40532865  0.49718962  0.79036272    -0.04400
C323        C  0.43365697  0.49784632  0.76401282     0.02800
C324        C  0.46721835  0.50282573  0.78024458    -0.04000
C325        C  0.46940015  0.00582757  0.82492057    -0.00200
C326        C  0.44030349  0.01043825  0.84942991    -0.03200
C327        C  0.37230503  0.48904456  0.77387369     0.36500
C328        C  0.49955987  0.99873680  0.84847993     0.40100
C329        C  0.42621440  0.49593653  0.72010147     0.39200
C330        C  0.44318292  0.01933107  0.89320065     0.36200
C331        C  0.39835351  0.94900658  0.88527095     0.36800
C332        C  0.30059730  0.55508351  0.88424022     0.40100
N333        N  0.41699168  0.49466554  0.68608945    -0.38000
N334        N  0.34600667  0.48252673  0.76090763    -0.39600
N335        N  0.02218845  0.99176079  0.86925220    -0.37300
N336        N  0.44542313  0.02646318  0.92798113    -0.39700
N337        N  0.36048764  0.58089555  0.81098754    -0.39500
N338        N  0.28024072  0.57589508  0.88228522    -0.37100
N339        N  0.34132665  0.92457368  0.96274841    -0.38200
N340        N  0.41781097  0.92729024  0.88449794    -0.39800
C341        C  0.06120713  0.51833983  0.15863314    -0.04800
C342        C  0.08830441  0.49639509  0.16517433     0.09400
C343        C  0.08580587  0.97220892  0.19575081    -0.02100
C344        C  0.05626174  0.96937481  0.21970138    -0.00400
C345        C  0.03016823  0.49488963  0.21882412    -0.04000
C346        C  0.03292732  0.51842534  0.18530213     0.03000
C347        C  0.11791656  0.99638689  0.13675258     0.09800
C348        C  0.11383018  0.94899331  0.20137597     0.35700
C349        C  0.00873339  0.54525114  0.17901273     0.39200
C350        C  0.14830149  0.01163047  0.14907509    -0.04400
C351        C  0.17593630  0.01190206  0.12177471     0.02800
C352        C  0.17363661  0.99626181  0.08242943    -0.04000
C353        C  0.14391253  0.47987614  0.07090368    -0.00200
C354        C  0.11612859  0.48008477  0.09791882    -0.02800
C355        C  0.15175513  0.02626668  0.19016969     0.36500
C356        C  0.14124472  0.46338364  0.03066742     0.40100
C357        C  0.20723897  0.02718930  0.13476938     0.39200
C358        C  0.08543186  0.46319250  0.08588042     0.36200
C359        C  0.06322685  0.54202152  0.12496834     0.36800
C360        C  0.05291279  0.93738767  0.23945600     0.40100
N361        N  0.23227611  0.03926246  0.14503726    -0.38000
N362        N  0.15576066  0.03776985  0.22288980    -0.39600
N363        N  0.13900529  0.45023757  0.99860444    -0.37300
N364        N  0.06089079  0.44975816  0.07647675    -0.39700
N365        N  0.13618797  0.93066743  0.20595967    -0.39500
N366        N  0.05157990  0.91087593  0.25314196    -0.37100
N367        N  0.99106285  0.56756634  0.17165888    -0.38200
N368        N  0.06487704  0.56075084  0.09806778    -0.39800
C369        C  0.38182852  0.50956015  0.09802063    -0.04800
C370        C  0.37993619  0.49233029  0.13577399     0.09400
C371        C  0.35000081  0.97475245  0.14602808    -0.02100
C372        C  0.32249569  0.97461501  0.11824677    -0.00400
C373        C  0.32410561  0.99268569  0.08109280    -0.04000
C374        C  0.35414747  0.50995592  0.07069478     0.03000
C375        C  0.40904448  0.49353672  0.16546511     0.09800
C376        C  0.34767721  0.95701632  0.18470490     0.35700
C377        C  0.35666468  0.52744873  0.03172331     0.39200
C378        C  0.41219981  0.02061694  0.19359294    -0.04400
C379        C  0.44091738  0.02346957  0.21954572     0.02800
C380        C  0.46671197  0.49750826  0.22041758    -0.04000
C381        C  0.46270952  0.47074632  0.19002643    -0.00200
C382        C  0.43435538  0.46909022  0.16345878    -0.02800
C383        C  0.38633904  0.04665931  0.19375424     0.36500
C384        C  0.48591036  0.44266013  0.18666082     0.40100
C385        C  0.44403480  0.05566931  0.24015410     0.39200
C386        C  0.43066737  0.44149204  0.13397250     0.36200
C387        C  0.41244521  0.52682399  0.08730321     0.36800
C388        C  0.29217506  0.95668083  0.12843129     0.40100
N389        N  0.44506045  0.08225852  0.25470621    -0.38000
N390        N  0.36583896  0.06740502  0.19363759    -0.39600
N391        N  0.00227355  0.41893979  0.18131566    -0.37300
N392        N  0.42756183  0.41953337  0.11056877    -0.39700
N393        N  0.34517085  0.94269453  0.21541758    -0.39500
N394        N  0.26798331  0.94232243  0.13641855    -0.37100
N395        N  0.35879145  0.54139776  0.00067830    -0.38200
N396        N  0.43693111  0.54047823  0.07878719    -0.39800
C397        C  0.52673504  0.93524667  0.33945968    -0.04800
C398        C  0.00371464  0.90908602  0.33518766     0.09400
C399        C  0.97711061  0.91216015  0.30708102    -0.02100
C400        C  0.97269342  0.94163864  0.28389619    -0.00400
C401        C  0.99854706  0.96685315  0.28251126    -0.04000
C402        C  0.52462160  0.96362676  0.31368228     0.03000
C403        C  0.00476266  0.88028880  0.36446057     0.09800
C404        C  0.95321493  0.88499177  0.30322125     0.35700
C405        C  0.55131888  0.98773351  0.31866674     0.39200
C406        C  0.48795743  0.88327154  0.40285543    -0.04400
C407        C  0.48803756  0.85633783  0.43054524     0.02800
C408        C  0.00483035  0.82609385  0.41996712    -0.04000
C409        C  0.02217777  0.82328003  0.38193235    -0.00200
C410        C  0.02205001  0.85025728  0.35416435    -0.02800
C411        C  0.47045717  0.91419728  0.41370155     0.36500
C412        C  0.03936405  0.79223019  0.37086183     0.40100
C413        C  0.47165581  0.86016483  0.47052515     0.39200
C414        C  0.03944103  0.84672820  0.31492686     0.36200
C415        C  0.55373877  0.93200584  0.36958281     0.36800
C416        C  0.93901120  0.94646307  0.26778554     0.40100
N417        N  0.45870841  0.86330602  0.50246158    -0.38000
N418        N  0.45657969  0.93895125  0.42209809    -0.39600
N419        N  0.05303898  0.76742619  0.36216803    -0.37300
N420        N  0.05355009  0.84289243  0.28386510    -0.39700
N421        N  0.93432280  0.86330253  0.29993795    -0.39500
N422        N  0.91149878  0.94949801  0.25667470    -0.37100
N423        N  0.57329924  0.50556894  0.32561380    -0.38200
N424        N  0.57527211  0.92919411  0.39346236    -0.39800
C425        C  0.02490069  0.58627442  0.30006725    -0.04800
C426        C  0.00169263  0.59022900  0.33223056     0.09400
C427        C  0.47953659  0.56424528  0.34037217    -0.02100
C428        C  0.47807122  0.53560824  0.31392634    -0.00400
C429        C  0.00127030  0.53057257  0.27984724    -0.04000
C430        C  0.02703882  0.55588365  0.27707686     0.03000
C431        C  0.00289526  0.62058721  0.36022197     0.09800
C432        C  0.45759978  0.56736978  0.37624449     0.35700
C433        C  0.05920209  0.55052448  0.25721077     0.39200
C434        C  0.48612784  0.65052730  0.34943178    -0.04400
C435        C  0.48672444  0.67863026  0.37652411     0.02800
C436        C  0.00412803  0.67698844  0.41460683    -0.04000
C437        C  0.02152631  0.64718838  0.42496485    -0.00200
C438        C  0.02122176  0.61931357  0.39765205    -0.02800
C439        C  0.46844292  0.65256780  0.31025406     0.36500
C440        C  0.03847840  0.64452050  0.46466085     0.40100
C441        C  0.47003214  0.70949226  0.36474708     0.39200
C442        C  0.03989925  0.58918707  0.40793568     0.36200
C443        C  0.04843317  0.61314107  0.29248515     0.36800
C444        C  0.45065743  0.51304869  0.32186197     0.40100
N445        N  0.45680955  0.73416066  0.35534984    -0.38000
N446        N  0.45438955  0.65470913  0.27896897    -0.39600
N447        N  0.05180399  0.64224308  0.49642029    -0.37300
N448        N  0.05488913  0.56517580  0.41593459    -0.39700
N449        N  0.44047762  0.56985284  0.40510869    -0.39500
N450        N  0.42781257  0.49705789  0.33089387    -0.37100
N451        N  0.08586454  0.54773157  0.24332137    -0.38200
N452        N  0.06711756  0.63448633  0.28635895    -0.39800
C453        C  0.47231014  0.85147023  0.64937075    -0.04800
C454        C  0.99813211  0.87542019  0.65079321     0.09400
C455        C  0.02629638  0.87129225  0.62454402    -0.02100
C456        C  0.02745982  0.84508600  0.59487342    -0.00400
C457        C  0.00121179  0.82136743  0.59253305    -0.04000
C458        C  0.47430911  0.82407293  0.62126253     0.03000
C459        C  0.99424566  0.90715208  0.67604775     0.09800
C460        C  0.05359060  0.89509089  0.62677829     0.35700
C461        C  0.44879026  0.79846175  0.62260632     0.39200
C462        C  0.49529053  0.90724695  0.71940062    -0.04400
C463        C  0.49347251  0.93775082  0.74240759     0.02800
C464        C  0.99520915  0.96979468  0.72227490    -0.04000
C465        C  0.99085149  0.96834059  0.67763283    -0.00200
C466        C  0.98983661  0.93749323  0.65563892    -0.02800
C467        C  0.50049555  0.87573010  0.74046027     0.36500
C468        C  0.98354980  0.99700184  0.65231174     0.40100
C469        C  0.49258167  0.93458787  0.78709071     0.39200
C470        C  0.98352920  0.93666750  0.61106565     0.36200
C471        C  0.44311662  0.85556582  0.67592820     0.36800
C472        C  0.05495881  0.84407072  0.56533180     0.40100
N473        N  0.49168550  0.92934344  0.82223923    -0.38000
N474        N  0.50487221  0.85064680  0.75717471    -0.39600
N475        N  0.97679747  0.51822160  0.62999146    -0.37300
N476        N  0.97843953  0.93596313  0.57574322    -0.39700
N477        N  0.07529551  0.91411495  0.62812170    -0.39500
N478        N  0.07688134  0.84346711  0.54178859    -0.37100
N479        N  0.42849764  0.77797737  0.62388489    -0.38200
N480        N  0.41989860  0.85879178  0.69723142    -0.39800
C481        C  0.48226566  0.61907071  0.59784902    -0.04800
C482        C  0.99884383  0.62099469  0.63653691     0.09400
C483        C  0.01497350  0.65086319  0.64868343    -0.02100
C484        C  0.01533691  0.67833205  0.62182084    -0.00400
C485        C  0.99938616  0.67606996  0.58279616    -0.04000
C486        C  0.48264748  0.64649238  0.57100576     0.03000
C487        C  0.99872280  0.59196390  0.66523609     0.09800
C488        C  0.03061147  0.65343555  0.68923832     0.35700
C489        C  0.46652952  0.64384101  0.53067117     0.39200
C490        C  0.02617215  0.56982075  0.66642506    -0.04400
C491        C  0.02648357  0.54255628  0.69393018     0.02800
C492        C  0.99856039  0.53642992  0.72138357    -0.04000
C493        C  0.47284327  0.56247038  0.72265406    -0.00200
C494        C  0.47227366  0.58840439  0.69331403    -0.02800
C495        C  0.05368452  0.57440156  0.63751231     0.36500
C496        C  0.44940324  0.56730347  0.75656422     0.40100
C497        C  0.05530678  0.52017721  0.69078897     0.39200
C498        C  0.44485072  0.61280296  0.69298361     0.36200
C499        C  0.46443928  0.58914961  0.58544183     0.36800
C500        C  0.03108303  0.70931004  0.63487769     0.40100
N501        N  0.07933794  0.50402065  0.68614291    -0.38000
N502        N  0.07544469  0.57799786  0.61429591    -0.39600
N503        N  0.43102159  0.57327132  0.78348680    -0.37300
N504        N  0.42311024  0.63225055  0.69269818    -0.39700
N505        N  0.04290978  0.65539532  0.72169181    -0.39500
N506        N  0.04348949  0.73411402  0.64524950    -0.37100
N507        N  0.45369267  0.64164111  0.49855267    -0.38200
N508        N  0.44960638  0.56598966  0.57420307    -0.39800
O509        O  0.52960767  0.28302175  0.54580666    -0.73700
O510        O  0.53123590  0.21686335  0.45886986    -0.73800
O511        O  0.53166337  0.28510807  0.46190965    -0.73800
O512        O  0.52908238  0.21558337  0.54224620    -0.73900
O513        O  0.97302143  0.21641258  0.53946439    -0.73800
O514        O  0.97553608  0.28652080  0.46036851    -0.73800
O515        O  0.97518298  0.21828862  0.45603601    -0.73700
O516        O  0.97371623  0.28429060  0.54379669    -0.73800
Ni517      Ni  0.53238860  0.25017222  0.50217415     1.25400
Ni518      Ni  0.97236449  0.25143752  0.49977158     1.25400
C519        C  0.50150799  0.29472786  0.55922220     0.88500
C520        C  0.00345945  0.20586771  0.44407235     0.88400
C521        C  0.00393910  0.29770178  0.44862783     0.88400
C522        C  0.50058165  0.20434125  0.55355773     0.88600
C523        C  0.49901242  0.99742731  0.25061332    -0.01800
C524        C  0.49865010  0.00379036  0.74941460    -0.01800
O525        O  0.78325212  0.02880003  0.96056457    -0.73700
O526        O  0.71478876  0.02581834  0.04379119    -0.73800
O527        O  0.78330216  0.02369626  0.04330181    -0.73800
O528        O  0.71501363  0.03183713  0.96078510    -0.73900
O529        O  0.71348319  0.47646030  0.95371150    -0.73800
O530        O  0.78209164  0.46822185  0.03689561    -0.73800
O531        O  0.71344111  0.47042830  0.03675661    -0.73700
O532        O  0.78119009  0.47357124  0.95371494    -0.73800
Ni533      Ni  0.74909883  0.02952214  0.00241684     1.25400
Ni534      Ni  0.74747689  0.47018073  0.99514126     1.25400
C535        C  0.79396132  0.00136872  0.94399687     0.88500
C536        C  0.70238509  0.49767807  0.05316891     0.88400
C537        C  0.79488075  0.49489465  0.05254517     0.88400
C538        C  0.70296586  0.00545589  0.94384959     0.88600
C539        C  0.61660011  0.52088687  0.89819880    -0.04800
C540        C  0.62171863  0.01109049  0.85609346     0.09400
C541        C  0.65446021  0.00195591  0.84259510    -0.02100
C542        C  0.68108115  0.99981128  0.87136733    -0.00400
C543        C  0.67563786  0.00880177  0.91322113    -0.04000
C544        C  0.64377014  0.52089298  0.92620793     0.03000
C545        C  0.59259488  0.00982939  0.82639707     0.09800
C546        C  0.66082658  0.99501875  0.79902517     0.35700
C547        C  0.63883545  0.53288982  0.96848613     0.39200
C548        C  0.57425575  0.03885080  0.81692435    -0.04400
C549        C  0.54343918  0.03654387  0.79518008     0.02800
C550        C  0.53369143  0.00590825  0.77405577    -0.04000
C551        C  0.55809850  0.47891293  0.77679315    -0.00200
C552        C  0.58332337  0.47949019  0.80753300    -0.02800
C553        C  0.58664652  0.07120680  0.83086342     0.36500
C554        C  0.56262716  0.45295721  0.74551581     0.40100
C555        C  0.52179539  0.06580360  0.79852173     0.39200
C556        C  0.60006936  0.44854749  0.81922959     0.36200
C557        C  0.58348915  0.53067736  0.91308120     0.36800
C558        C  0.71429817  0.98907764  0.85782552     0.40100
N559        N  0.50661014  0.09033786  0.80377507    -0.38000
N560        N  0.59656362  0.09695882  0.84184458    -0.39600
N561        N  0.56834089  0.43221458  0.72106268    -0.37300
N562        N  0.61327057  0.42389590  0.82873634    -0.39700
N563        N  0.66580824  0.98938360  0.76428044    -0.39500
N564        N  0.74083085  0.98053495  0.84715790    -0.37100
N565        N  0.63484204  0.54286046  0.00198834    -0.38200
N566        N  0.55742383  0.53898618  0.92561610    -0.39800
C567        C  0.87410783  0.47652022  0.88626283    -0.04800
C568        C  0.87831095  0.00392906  0.86007679     0.09400
C569        C  0.85412500  0.02997842  0.86000210    -0.02100
C570        C  0.82603259  0.02876046  0.88648688    -0.00400
C571        C  0.82227807  0.00172542  0.91391011    -0.04000
C572        C  0.84638567  0.47544797  0.91318363     0.03000
C573        C  0.90837148  0.00495205  0.83241648     0.09800
C574        C  0.85794919  0.05808461  0.83258627     0.35700
C575        C  0.84349585  0.44729247  0.94082794     0.39200
C576        C  0.90527813  0.99724365  0.79020012    -0.04400
C577        C  0.93362971  0.99801843  0.76389758     0.02800
C578        C  0.96717428  0.00297357  0.78019634    -0.04000
C579        C  0.96944459  0.50575647  0.82491432    -0.00200
C580        C  0.94033754  0.51050816  0.84935908    -0.03200
C581        C  0.87228015  0.98911413  0.77362136     0.36500
C582        C  0.99955952  0.49863470  0.84854538     0.40100
C583        C  0.92623268  0.99625032  0.71996629     0.39200
C584        C  0.94319190  0.51960653  0.89306952     0.36200
C585        C  0.89848264  0.44920861  0.88549358     0.36800
C586        C  0.80050773  0.05488640  0.88429018     0.40100
N587        N  0.91704983  0.99510283  0.68593312    -0.38000
N588        N  0.84600186  0.98260954  0.76058208    -0.39600
N589        N  0.52225014  0.49156007  0.86926726    -0.37300
N590        N  0.94540998  0.52691211  0.92779959    -0.39700
N591        N  0.86027616  0.08068254  0.81083430    -0.39500
N592        N  0.78014838  0.07569936  0.88239128    -0.37100
N593        N  0.84118240  0.42469083  0.96259689    -0.38200
N594        N  0.91802091  0.42756207  0.88492796    -0.39800
C595        C  0.56097786  0.01824398  0.15850001    -0.04800
C596        C  0.58813406  0.99636212  0.16504439     0.09400
C597        C  0.58603114  0.47231499  0.19588325    -0.02100
C598        C  0.55651577  0.46955665  0.21992827    -0.00400
C599        C  0.53003178  0.99474460  0.21872081    -0.04000
C600        C  0.53269903  0.01826477  0.18517825     0.03000
C601        C  0.61815555  0.49645668  0.13685298     0.09800
C602        C  0.61403534  0.44906645  0.20146155     0.35700
C603        C  0.50839057  0.04497997  0.17885050     0.39200
C604        C  0.64851324  0.51177800  0.14912950    -0.04400
C605        C  0.67614608  0.51205340  0.12182306     0.02800
C606        C  0.67383530  0.49643026  0.08246953    -0.04000
C607        C  0.64370955  0.97977036  0.07076288    -0.00200
C608        C  0.61591207  0.98005912  0.09776035    -0.02800
C609        C  0.65193150  0.52651700  0.19017314     0.36500
C610        C  0.64105065  0.96319134  0.03057984     0.40100
C611        C  0.70746195  0.52730737  0.13482796     0.39200
C612        C  0.58517459  0.96324499  0.08570784     0.36200
C613        C  0.56294788  0.04194502  0.12485506     0.36800
C614        C  0.55331249  0.43770661  0.24007274     0.40100
N615        N  0.73251372  0.53933877  0.14511857    -0.38000
N616        N  0.65590450  0.53812222  0.22284504    -0.39600
N617        N  0.63881571  0.94996942  0.99856326    -0.37300
N618        N  0.56059293  0.94988941  0.07629141    -0.39700
N619        N  0.63637730  0.43071237  0.20599231    -0.39500
N620        N  0.55219662  0.41129965  0.25410573    -0.37100
N621        N  0.49059559  0.06719132  0.17146681    -0.38200
N622        N  0.56456454  0.06069454  0.09797305    -0.39800
C623        C  0.88151289  0.00942112  0.09844323    -0.04800
C624        C  0.87944025  0.99246992  0.13637658     0.09400
C625        C  0.85047788  0.47451824  0.14528590    -0.02100
C626        C  0.82289522  0.47450446  0.11763118    -0.00400
C627        C  0.82437382  0.49278017  0.08063004    -0.04000
C628        C  0.85391422  0.00973205  0.07099167     0.03000
C629        C  0.90857360  0.99355764  0.16603540     0.09800
C630        C  0.84831103  0.45643850  0.18372523     0.35700
C631        C  0.85660619  0.02695908  0.03185447     0.39200
C632        C  0.91242915  0.52066864  0.19297553    -0.04400
C633        C  0.94106083  0.52358727  0.21905581     0.02800
C634        C  0.96645279  0.99737018  0.22068293    -0.04000
C635        C  0.96227959  0.97063907  0.19028991    -0.00200
C636        C  0.93379934  0.96903237  0.16392367    -0.02800
C637        C  0.88651029  0.54665271  0.19303376     0.36500
C638        C  0.98545160  0.94255544  0.18664862     0.40100
C639        C  0.94407286  0.55579974  0.23966925     0.39200
C640        C  0.92988761  0.94140158  0.13452764     0.36200
C641        C  0.91222766  0.02649411  0.08767565     0.36800
C642        C  0.79260962  0.45651137  0.12782354     0.40100
N643        N  0.94503585  0.58239120  0.25422728    -0.38000
N644        N  0.86596135  0.56734916  0.19283077    -0.39600
N645        N  0.50184798  0.91878606  0.18119833    -0.37300
N646        N  0.92659346  0.91941631  0.11120523    -0.39700
N647        N  0.84587639  0.44178893  0.21420377    -0.39500
N648        N  0.76843954  0.44212259  0.13582418    -0.37100
N649        N  0.85887318  0.04069837  0.00067973    -0.38200
N650        N  0.93679011  0.03999946  0.07912424    -0.39800
C651        C  0.02612176  0.43547558  0.33973084    -0.04800
C652        C  0.50322116  0.40939382  0.33537858     0.09400
C653        C  0.47676330  0.41246245  0.30707507    -0.02100
C654        C  0.47254955  0.44189320  0.28375312    -0.00400
C655        C  0.49847158  0.46705072  0.28248990    -0.04000
C656        C  0.02421514  0.46381138  0.31386800     0.03000
C657        C  0.50425986  0.38050466  0.36450384     0.09800
C658        C  0.45276833  0.38537984  0.30320106     0.35700
C659        C  0.05093561  0.48787182  0.31903656     0.39200
C660        C  0.98843846  0.38375123  0.40350450    -0.04400
C661        C  0.98867888  0.35678818  0.43115217     0.02800
C662        C  0.50464736  0.32626030  0.41988798    -0.04000
C663        C  0.52056198  0.32298304  0.38097047    -0.00200
C664        C  0.52022434  0.34997569  0.35323092    -0.02800
C665        C  0.97184710  0.41500522  0.41505793     0.36500
C666        C  0.53646153  0.29146745  0.36903949     0.40100
C667        C  0.97343697  0.36088033  0.47177907     0.39200
C668        C  0.53592119  0.34596165  0.31297210     0.36200
C669        C  0.05295103  0.43224508  0.37009570     0.36800
C670        C  0.43895864  0.44676038  0.26739115     0.40100
N671        N  0.96139583  0.36424240  0.50422184    -0.38000
N672        N  0.95868531  0.44001819  0.42401790    -0.39600
N673        N  0.54910642  0.26628364  0.35967441    -0.37300
N674        N  0.54855066  0.34182251  0.28100532    -0.39700
N675        N  0.43379730  0.36376037  0.29990217    -0.39500
N676        N  0.41150378  0.44985167  0.25609858    -0.37100
N677        N  0.07353577  0.00542762  0.32509656    -0.38200
N678        N  0.07433074  0.42945385  0.39418715    -0.39800
C679        C  0.52484466  0.08629050  0.29970016    -0.04800
C680        C  0.50181655  0.09022622  0.33206623     0.09400
C681        C  0.97968035  0.06410756  0.34047343    -0.02100
C682        C  0.97820175  0.03540538  0.31413024    -0.00400
C683        C  0.50137022  0.03042790  0.27991933    -0.04000
C684        C  0.52702080  0.05582635  0.27686298     0.03000
C685        C  0.50304180  0.12065936  0.35994537     0.09800
C686        C  0.95792176  0.06721230  0.37651090     0.35700
C687        C  0.55913607  0.05050732  0.25687447     0.39200
C688        C  0.98595092  0.15047793  0.34921198    -0.04400
C689        C  0.98652252  0.17860782  0.37627123     0.02800
C690        C  0.50416883  0.17711920  0.41426681    -0.04000
C691        C  0.52170829  0.14739041  0.42459534    -0.00200
C692        C  0.52145670  0.11949330  0.39731628    -0.02800
C693        C  0.96811049  0.15242600  0.31013487     0.36500
C694        C  0.53874738  0.14480668  0.46424529     0.40100
C695        C  0.96966023  0.20939286  0.36454272     0.39200
C696        C  0.54026765  0.08944542  0.40759011     0.36200
C697        C  0.54815406  0.11326668  0.29171550     0.36800
C698        C  0.95091893  0.01275443  0.32232613     0.40100
N699        N  0.95630065  0.23399765  0.35517638    -0.38000
N700        N  0.95392243  0.15452466  0.27893703    -0.39600
N701        N  0.55214068  0.14260091  0.49597013    -0.37300
N702        N  0.55536076  0.06549767  0.41559011    -0.39700
N703        N  0.94094623  0.06968730  0.40550739    -0.39500
N704        N  0.92819581  0.99667022  0.33155865    -0.37100
N705        N  0.58576807  0.04776771  0.24288498    -0.38200
N706        N  0.56665288  0.13470242  0.28524677    -0.39800
C707        C  0.97249926  0.35128810  0.64946191    -0.04800
C708        C  0.49819959  0.37533554  0.65073873     0.09400
C709        C  0.52626399  0.37135139  0.62429769    -0.02100
C710        C  0.52741163  0.34517289  0.59458918    -0.00400
C711        C  0.50125156  0.32135266  0.59238266    -0.04000
C712        C  0.97441303  0.32395940  0.62123876     0.03000
C713        C  0.49428135  0.40703907  0.67603834     0.09800
C714        C  0.55345779  0.39527138  0.62638146     0.35700
C715        C  0.94885598  0.29838527  0.62254445     0.39200
C716        C  0.99557709  0.40707938  0.71946232    -0.04400
C717        C  0.99370205  0.43758333  0.74246273     0.02800
C718        C  0.49524575  0.46966682  0.72228133    -0.04000
C719        C  0.49077376  0.46821887  0.67765130    -0.00200
C720        C  0.48967632  0.43737012  0.65566987    -0.02800
C721        C  0.00091255  0.37558260  0.74051910     0.36500
C722        C  0.48344028  0.49688562  0.65234236     0.40100
C723        C  0.99281198  0.43443463  0.78714772     0.39200
C724        C  0.48306398  0.43652633  0.61116380     0.36200
C725        C  0.94340453  0.35530291  0.67619930     0.36800
C726        C  0.55478224  0.34429329  0.56486457     0.40100
N727        N  0.99192462  0.42921033  0.82230138    -0.38000
N728        N  0.00539833  0.35051636  0.75723190    -0.39600
N729        N  0.47665653  0.01842633  0.62999809    -0.37300
N730        N  0.47771202  0.43580766  0.57590034    -0.39700
N731        N  0.57507329  0.41439923  0.62762009    -0.39500
N732        N  0.57659952  0.34379434  0.54117294    -0.37100
N733        N  0.92852162  0.27794004  0.62378674    -0.38200
N734        N  0.92027401  0.35846329  0.69765944    -0.39800
C735        C  0.98247871  0.11907368  0.59768414    -0.04800
C736        C  0.49879431  0.12119009  0.63648525     0.09400
C737        C  0.51480659  0.15112637  0.64862740    -0.02100
C738        C  0.51522521  0.17853530  0.62166569    -0.00400
C739        C  0.49946915  0.17613934  0.58253348    -0.04000
C740        C  0.98290315  0.14643191  0.57073957     0.03000
C741        C  0.49867992  0.09218729  0.66524576     0.09800
C742        C  0.53025523  0.15383666  0.68927843     0.35700
C743        C  0.96691944  0.14366026  0.53033442     0.39200
C744        C  0.52609084  0.06999293  0.66637666    -0.04400
C745        C  0.52639237  0.04271994  0.69387507     0.02800
C746        C  0.49848559  0.03661619  0.72136390    -0.04000
C747        C  0.97291205  0.06265889  0.72266491    -0.00200
C748        C  0.97239143  0.08861405  0.69334272    -0.02800
C749        C  0.55358148  0.07454056  0.63742425     0.36500
C750        C  0.94944059  0.06748090  0.75655034     0.40100
C751        C  0.55518761  0.02030798  0.69069338     0.39200
C752        C  0.94503350  0.11308441  0.69306208     0.36200
C753        C  0.96468383  0.08912513  0.58531793     0.36800
C754        C  0.53080226  0.20959796  0.63472840     0.40100
N755        N  0.57919517  0.00411968  0.68602764    -0.38000
N756        N  0.57532364  0.07811274  0.61417589    -0.39600
N757        N  0.93102630  0.07342013  0.78344998    -0.37300
N758        N  0.92334835  0.13259418  0.69282306    -0.39700
N759        N  0.54239829  0.15591758  0.72181055    -0.39500
N760        N  0.54306322  0.23447578  0.64509698    -0.37100
N761        N  0.95419086  0.14135651  0.49816036    -0.38200
N762        N  0.94986065  0.06595778  0.57408360    -0.39800
O763        O  0.52961790  0.78296563  0.54609640    -0.73700
O764        O  0.53128434  0.71673012  0.45923499    -0.73800
O765        O  0.53179197  0.78498453  0.46221274    -0.73800
O766        O  0.52903854  0.71552604  0.54259437    -0.73900
O767        O  0.97296646  0.71644237  0.53975002    -0.73800
O768        O  0.97567141  0.78641145  0.46046740    -0.73800
O769        O  0.97522191  0.71819674  0.45633067    -0.73700
O770        O  0.97372247  0.78432536  0.54390876    -0.73800
Ni771      Ni  0.53242477  0.75007793  0.50250500     1.25400
Ni772      Ni  0.97239669  0.75140664  0.49996926     1.25400
C773        C  0.50150975  0.79473140  0.55940970     0.88500
C774        C  0.00349500  0.70574782  0.44441380     0.88400
C775        C  0.00410331  0.79757954  0.44879606     0.88400
C776        C  0.50051490  0.70432764  0.55387720     0.88600
C777        C  0.49907564  0.49759298  0.25054399    -0.01800
C778        C  0.49870594  0.50364227  0.74944020    -0.01800
O779        O  0.78326550  0.52898507  0.96043445    -0.73700
O780        O  0.71496278  0.52598739  0.04387344    -0.73800
O781        O  0.78348810  0.52383684  0.04314854    -0.73800
O782        O  0.71502309  0.53205687  0.96086407    -0.73900
O783        O  0.71351081  0.97623863  0.95365561    -0.73800
O784        O  0.78193614  0.96807578  0.03712059    -0.73800
O785        O  0.71328237  0.97025596  0.03671597    -0.73700
O786        O  0.78123482  0.97338188  0.95389462    -0.73800
Ni787      Ni  0.74919304  0.52970376  0.00238955     1.25400
Ni788      Ni  0.74742091  0.96999587  0.99521741     1.25400
C789        C  0.79393820  0.50155024  0.94383811     0.88500
C790        C  0.70219967  0.99751438  0.05308175     0.88400
C791        C  0.79466662  0.99476692  0.05280209     0.88400
C792        C  0.70294226  0.50568523  0.94394236     0.88600
C793        C  0.61666052  0.02082510  0.89805267    -0.04800
C794        C  0.62166569  0.51112872  0.85624785     0.09400
C795        C  0.65442104  0.50207298  0.84273218    -0.02100
C796        C  0.68106055  0.50003158  0.87148225    -0.00400
C797        C  0.67561154  0.50903398  0.91332993    -0.04000
C798        C  0.64381373  0.02072344  0.92608612     0.03000
C799        C  0.59255105  0.50981453  0.82655222     0.09800
C800        C  0.66078012  0.49510220  0.79916808     0.35700
C801        C  0.63887240  0.03267073  0.96838361     0.39200
C802        C  0.57420262  0.53881685  0.81703098    -0.04400
C803        C  0.54342001  0.53647504  0.79522604     0.02800
C804        C  0.53373089  0.50582109  0.77409824    -0.04000
C805        C  0.55803302  0.97897022  0.77670736    -0.00200
C806        C  0.58331064  0.97952000  0.80738523    -0.02800
C807        C  0.58655264  0.57118876  0.83097181     0.36500
C808        C  0.56247565  0.95298959  0.74544688     0.40100
C809        C  0.52175088  0.56572000  0.79850801     0.39200
C810        C  0.60005690  0.94856069  0.81902162     0.36200
C811        C  0.58357360  0.03071860  0.91291790     0.36800
C812        C  0.71430426  0.48939782  0.85792209     0.40100
N813        N  0.50654644  0.59024792  0.80371996    -0.38000
N814        N  0.59644243  0.59695225  0.84194990    -0.39600
N815        N  0.56813032  0.93221501  0.72101644    -0.37300
N816        N  0.61326456  0.92389784  0.82847274    -0.39700
N817        N  0.66575322  0.48943710  0.76442853    -0.39500
N818        N  0.74085957  0.48094148  0.84723945    -0.37100
N819        N  0.63486579  0.04260028  0.00190112    -0.38200
N820        N  0.55753082  0.03911910  0.92543438    -0.39800
C821        C  0.87403555  0.97635111  0.88616730    -0.04800
C822        C  0.87839289  0.50405660  0.86010933     0.09400
C823        C  0.85419680  0.53009676  0.85993314    -0.02100
C824        C  0.82606550  0.52889587  0.88635452    -0.00400
C825        C  0.82227305  0.50187949  0.91379016    -0.04000
C826        C  0.84638056  0.97528525  0.91320048     0.03000
C827        C  0.90844355  0.50500588  0.83243708     0.09800
C828        C  0.85805746  0.55818705  0.83250269     0.35700
C829        C  0.84356342  0.94714071  0.94087247     0.39200
C830        C  0.90534089  0.49714145  0.79026258    -0.04400
C831        C  0.93368881  0.49781687  0.76394713     0.02800
C832        C  0.96723516  0.50280983  0.78022082    -0.04000
C833        C  0.96937883  0.00582637  0.82490042    -0.00200
C834        C  0.94026028  0.01043243  0.84936991    -0.03200
C835        C  0.87233695  0.48896749  0.77373587     0.36500
C836        C  0.99952199  0.99875859  0.84850230     0.40100
C837        C  0.92628105  0.49591597  0.72002616     0.39200
C838        C  0.94309890  0.01935218  0.89313690     0.36200
C839        C  0.89833632  0.94897791  0.88518852     0.36800
C840        C  0.80053572  0.55501169  0.88407529     0.40100
N841        N  0.91708670  0.49465454  0.68600208    -0.38000
N842        N  0.84605453  0.48242572  0.76073907    -0.39600
N843        N  0.52223967  0.99171749  0.86919666    -0.37300
N844        N  0.94530538  0.02650681  0.92791398    -0.39700
N845        N  0.86040213  0.58078634  0.81075616    -0.39500
N846        N  0.78017172  0.57581531  0.88210931    -0.37100
N847        N  0.84131534  0.92455470  0.96267750    -0.38200
N848        N  0.91780499  0.92727130  0.88443413    -0.39800
C849        C  0.56123334  0.51835241  0.15862041    -0.04800
C850        C  0.58834104  0.49642054  0.16516129     0.09400
C851        C  0.58585682  0.97223784  0.19574583    -0.02100
C852        C  0.55632223  0.96939653  0.21971435    -0.00400
C853        C  0.53021855  0.49490629  0.21883296    -0.04000
C854        C  0.53296155  0.51843573  0.18530165     0.03000
C855        C  0.61793495  0.99641337  0.13671758     0.09800
C856        C  0.61389679  0.94904088  0.20137039     0.35700
C857        C  0.50875897  0.54525475  0.17901573     0.39200
C858        C  0.64831525  0.01168159  0.14901007    -0.04400
C859        C  0.67593991  0.01195391  0.12169406     0.02800
C860        C  0.67363401  0.99629399  0.08236112    -0.04000
C861        C  0.64392024  0.47988997  0.07086841    -0.00200
C862        C  0.61614878  0.48009272  0.09790263    -0.02800
C863        C  0.65177630  0.02634354  0.19008976     0.36500
C864        C  0.64124130  0.46338675  0.03063990     0.40100
C865        C  0.70723920  0.02726313  0.13466075     0.39200
C866        C  0.58545844  0.46317430  0.08589735     0.36200
C867        C  0.56323427  0.54202435  0.12494312     0.36800
C868        C  0.55300513  0.93741926  0.23950369     0.40100
N869        N  0.73227339  0.03935425  0.14490624    -0.38000
N870        N  0.65579125  0.03786994  0.22279577    -0.39600
N871        N  0.63899292  0.45023351  0.99858236    -0.37300
N872        N  0.56092288  0.44971830  0.07652070    -0.39700
N873        N  0.63626765  0.93073078  0.20595403    -0.39500
N874        N  0.55170723  0.91091607  0.25322173    -0.37100
N875        N  0.49107855  0.56756345  0.17166699    -0.38200
N876        N  0.56486986  0.56074586  0.09803264    -0.39800
C877        C  0.88181247  0.50954218  0.09795668    -0.04800
C878        C  0.87988636  0.49236185  0.13574273     0.09400
C879        C  0.84992681  0.97483555  0.14601815    -0.02100
C880        C  0.82243441  0.97468542  0.11821856    -0.00400
C881        C  0.82407708  0.99270675  0.08102993    -0.04000
C882        C  0.85414476  0.50992717  0.07061036     0.03000
C883        C  0.90899175  0.49355723  0.16543685     0.09800
C884        C  0.84756929  0.95715598  0.18473214     0.35700
C885        C  0.85669668  0.52736068  0.03160106     0.39200
C886        C  0.91215429  0.02064545  0.19356967    -0.04400
C887        C  0.94087644  0.02348756  0.21951601     0.02800
C888        C  0.96665947  0.49750533  0.22039046    -0.04000
C889        C  0.96265382  0.47075256  0.18998803    -0.00200
C890        C  0.93429690  0.46910524  0.16342422    -0.02800
C891        C  0.88630227  0.04669658  0.19373570     0.36500
C892        C  0.98585514  0.44266857  0.18660105     0.40100
C893        C  0.94401553  0.05569259  0.24010486     0.39200
C894        C  0.93059731  0.44150825  0.13393839     0.36200
C895        C  0.91244766  0.52677032  0.08723024     0.36800
C896        C  0.79209486  0.95678685  0.12841530     0.40100
N897        N  0.94506194  0.08228664  0.25463928    -0.38000
N898        N  0.86580935  0.06744938  0.19362379    -0.39600
N899        N  0.50232903  0.41892836  0.18139877    -0.37300
N900        N  0.92748146  0.41955061  0.11053545    -0.39700
N901        N  0.84503586  0.94288330  0.21547699    -0.39500
N902        N  0.76788814  0.94245627  0.13641140    -0.37100
N903        N  0.85885150  0.54126066  0.00052478    -0.38200
N904        N  0.93694764  0.54039773  0.07870861    -0.39800
C905        C  0.02667597  0.93522100  0.33942490    -0.04800
C906        C  0.50376859  0.90911464  0.33523523     0.09400
C907        C  0.47715701  0.91218799  0.30714062    -0.02100
C908        C  0.47274380  0.94165989  0.28394449    -0.00400
C909        C  0.49860530  0.96686613  0.28253993    -0.04000
C910        C  0.02456209  0.96360703  0.31365560     0.03000
C911        C  0.50482653  0.88031699  0.36450330     0.09800
C912        C  0.45324396  0.88503171  0.30331543     0.35700
C913        C  0.05125621  0.98771502  0.31865463     0.39200
C914        C  0.98776650  0.88319614  0.40273153    -0.04400
C915        C  0.98784066  0.85626531  0.43042736     0.02800
C916        C  0.50490470  0.82611970  0.41999631    -0.04000
C917        C  0.52211944  0.82325358  0.38187669    -0.00200
C918        C  0.52198409  0.85023267  0.35411272    -0.02800
C919        C  0.97015450  0.91407727  0.41349672     0.36500
C920        C  0.53916732  0.79214872  0.37071898     0.40100
C921        C  0.97133592  0.86005698  0.47033427     0.39200
C922        C  0.53922144  0.84665169  0.31477758     0.36200
C923        C  0.05367342  0.93197903  0.36955615     0.36800
C924        C  0.43905697  0.94649246  0.26785016     0.40100
N925        N  0.95829176  0.86316921  0.50221438    -0.38000
N926        N  0.95618923  0.93879621  0.42182923    -0.39600
N927        N  0.55272941  0.76729907  0.36195652    -0.37300
N928        N  0.55319758  0.84278195  0.28363003    -0.39700
N929        N  0.43433717  0.86335272  0.30006098    -0.39500
N930        N  0.41154182  0.94953822  0.25675397    -0.37100
N931        N  0.07322420  0.50553943  0.32562999    -0.38200
N932        N  0.07520309  0.92916549  0.39344038    -0.39800
C933        C  0.52496608  0.58630093  0.30005555    -0.04800
C934        C  0.50177497  0.59025349  0.33223741     0.09400
C935        C  0.97944583  0.56422358  0.34034563    -0.02100
C936        C  0.97799389  0.53558525  0.31390004    -0.00400
C937        C  0.50133161  0.53059551  0.27985647    -0.04000
C938        C  0.52709707  0.55590853  0.27706781     0.03000
C939        C  0.50298097  0.62061605  0.36022101     0.09800
C940        C  0.95748479  0.56735381  0.37619435     0.35700
C941        C  0.55925514  0.55054879  0.25719004     0.39200
C942        C  0.98601932  0.65049178  0.34945638    -0.04400
C943        C  0.98662897  0.67859485  0.37654752     0.02800
C944        C  0.50418932  0.67701666  0.41460690    -0.04000
C945        C  0.52157106  0.64721200  0.42498457    -0.00200
C946        C  0.52127923  0.61933749  0.39767163    -0.02800
C947        C  0.96829625  0.65252758  0.31030480     0.36500
C948        C  0.53849362  0.64454013  0.46469932     0.40100
C949        C  0.96991358  0.70945071  0.36479277     0.39200
C950        C  0.53994111  0.58920662  0.40797675     0.36200
C951        C  0.54849273  0.61316902  0.29245424     0.36800
C952        C  0.95057438  0.51302620  0.32180985     0.40100
N953        N  0.95667247  0.73411454  0.35541511    -0.38000
N954        N  0.95420845  0.65467164  0.27904356    -0.39600
N955        N  0.55179598  0.64226072  0.49647322    -0.37300
N956        N  0.55491872  0.56519223  0.41599463    -0.39700
N957        N  0.94034104  0.56984244  0.40503844    -0.39500
N958        N  0.92772341  0.49703402  0.33081516    -0.37100
N959        N  0.58591439  0.54775568  0.24329184    -0.38200
N960        N  0.56717251  0.63451509  0.28631192    -0.39800
C961        C  0.97231811  0.85147713  0.64937119    -0.04800
C962        C  0.49807593  0.87546619  0.65074072     0.09400
C963        C  0.52622197  0.87138770  0.62444951    -0.02100
C964        C  0.52741661  0.84516354  0.59480547    -0.00400
C965        C  0.50121784  0.82139061  0.59252513    -0.04000
C966        C  0.97427993  0.82409379  0.62123630     0.03000
C967        C  0.49416315  0.90718591  0.67601075     0.09800
C968        C  0.55345955  0.89525399  0.62661029     0.35700
C969        C  0.94869072  0.79854907  0.62251241     0.39200
C970        C  0.99532746  0.90722252  0.71943966    -0.04400
C971        C  0.99351221  0.93773277  0.74243526     0.02800
C972        C  0.49514525  0.96981678  0.72225434    -0.04000
C973        C  0.49074118  0.96837109  0.67761894    -0.00200
C974        C  0.48969774  0.93752716  0.65562074    -0.02800
C975        C  0.00048091  0.87570566  0.74051633     0.36500
C976        C  0.48342761  0.99703909  0.65231511     0.40100
C977        C  0.99259462  0.93458105  0.78711932     0.39200
C978        C  0.48330471  0.93670348  0.61106629     0.36200
C979        C  0.94311897  0.85561002  0.67591221     0.36800
C980        C  0.55489379  0.84417736  0.56523246     0.40100
N981        N  0.99167836  0.92935006  0.82227029    -0.38000
N982        N  0.00481644  0.85062212  0.75724502    -0.39600
N983        N  0.47665433  0.51826585  0.63001864    -0.37300
N984        N  0.47814319  0.93600008  0.57575960    -0.39700
N985        N  0.57511537  0.91433520  0.62789397    -0.39500
N986        N  0.57679953  0.84359489  0.54166540    -0.37100
N987        N  0.92833753  0.77812125  0.62373583    -0.38200
N988        N  0.91989893  0.85886315  0.69720675    -0.39800
C989        C  0.98230898  0.61903389  0.59784403    -0.04800
C990        C  0.49877233  0.62103518  0.63655980     0.09400
C991        C  0.51488597  0.65090781  0.64872491    -0.02100
C992        C  0.51527534  0.67837174  0.62185548    -0.00400
C993        C  0.49936089  0.67610211  0.58280911    -0.04000
C994        C  0.98267162  0.64645803  0.57100318     0.03000
C995        C  0.49865526  0.59199693  0.66524725     0.09800
C996        C  0.53048021  0.65348907  0.68930459     0.35700
C997        C  0.96653677  0.64380521  0.53067924     0.39200
C998        C  0.52609989  0.56984717  0.66640648    -0.04400
C999        C  0.52641611  0.54257147  0.69389424     0.02800
C1000       C  0.49850882  0.53644793  0.72137387    -0.04000
C1001       C  0.97288746  0.56244619  0.72263390    -0.00200
C1002       C  0.97232769  0.58837252  0.69328412    -0.02800
C1003       C  0.55360787  0.57444113  0.63749058     0.36500
C1004       C  0.94942500  0.56728060  0.75652174     0.40100
C1005       C  0.55522885  0.52018275  0.69071116     0.39200
C1006       C  0.94489706  0.61276204  0.69292010     0.36200
C1007       C  0.96447299  0.58911346  0.58545546     0.36800
C1008       C  0.53100855  0.70935262  0.63492644     0.40100
N1009       N  0.57925224  0.50402152  0.68602728    -0.38000
N1010       N  0.57536563  0.57805076  0.61427436    -0.39600
N1011       N  0.93102324  0.57324816  0.78342389    -0.37300
N1012       N  0.92314972  0.63220145  0.69260616    -0.39700
N1013       N  0.54274075  0.65545671  0.72177918    -0.39500
N1014       N  0.54340427  0.73415902  0.64530984    -0.37100
N1015       N  0.95368877  0.64160220  0.49856782    -0.38200
N1016       N  0.94963249  0.56595179  0.57423831    -0.39800
loop_ 
_geom_bond_atom_site_label_1 
_geom_bond_atom_site_label_2 
_geom_bond_distance 
_geom_bond_site_symmetry_2 
_ccdc_geom_bond_type 
O1           Ni9   1.914       .  S
O1           C11   1.281       .  A
O2           Ni9   1.917       .  S
O2          C520   1.281       .  A
O3           Ni9   1.922       .  S
O3          C521   1.282       .  A
O4           Ni9   1.913       .  S
O4           C14   1.280       .  A
O5          Ni10   1.912       .  S
O5          C522   1.280       .  A
O6          Ni10   1.913       .  S
O6           C13   1.280       .  A
O7          Ni10   1.925       .  S
O7           C12   1.283       .  A
O8          Ni10   1.922       .  S
O8          C519   1.283       .  A
Ni9        Ni518   2.388   1_455  S
Ni10       Ni517   2.388       .  S
C11         O516   1.283   1_455  A
C11         C203   1.499       .  S
C12         O510   1.281       .  A
C12         C690   1.489       .  S
C13         O511   1.282       .  A
C13         C662   1.482       .  S
C14         O513   1.280   1_455  A
C14         C231   1.477   1_455  S
C15          C91   1.610   1_655  S
C15         C175   1.616   1_665  S
C15         C634   1.613       .  S
C15         C401   1.610       .  S
C16          C42   1.606   1_655  S
C16         C238   1.605       .  S
C16         C578   1.601       .  S
C16         C464   1.613   1_545  S
O17         Ni25   1.917   1_556  S
O17          C27   1.282       .  A
O18         Ni25   1.919       .  S
O18         C282   1.282   1_545  A
O19         Ni25   1.909       .  S
O19         C283   1.279   1_545  A
O20         Ni25   1.910   1_556  S
O20          C30   1.278       .  A
O21         Ni26   1.918       .  S
O21         C284   1.281       .  A
O22         Ni26   1.927   1_554  S
O22          C29   1.283       .  A
O23         Ni26   1.908   1_554  S
O23          C28   1.279       .  A
O24         Ni26   1.902       .  S
O24         C281   1.278       .  A
Ni25       Ni280   2.390   1_544  S
Ni26       Ni279   2.390   1_556  S
C27         O278   1.278   1_545  A
C27          C63   1.489       .  S
C28         O272   1.282       .  A
C28          C98   1.481       .  S
C29         O273   1.279       .  A
C29         C119   1.484       .  S
C30         O275   1.281   1_545  A
C30          C35   1.475       .  S
C31          C36   1.408       .  A
C31         C286   1.417       .  A
C31          C49   1.451       .  S
C32          C37   1.503       .  S
C32          C33   1.417       .  A
C32         C285   1.417       .  A
C33          C34   1.410   1_545  A
C33          C38   1.451   1_545  S
C34          C35   1.409   1_565  A
C34          C50   1.451       .  S
C35         C290   1.409       .  A
C36         C289   1.409       .  A
C36          C39   1.452       .  S
C37          C40   1.402       .  A
C37         C298   1.403   1_545  A
C38          N55   1.157       .  T
C39          N57   1.157   1_556  T
C40          C41   1.415       .  A
C40          C45   1.454       .  S
C41          C42   1.449       .  A
C41          C47   1.448       .  S
C42         C297   1.444   1_545  A
C43          C44   1.410       .  A
C43         C296   1.444       .  A
C43          C46   1.447       .  S
C44         C291   1.403       .  A
C44          C48   1.454       .  S
C45          N52   1.157       .  T
C46          N53   1.157       .  T
C47          N51   1.157       .  T
C48          N54   1.157       .  T
C49          N58   1.157       .  T
C50          N56   1.157       .  T
C59          C64   1.406       .  A
C59         C314   1.409       .  A
C59          C77   1.453       .  S
C60          C65   1.495       .  S
C60          C61   1.411       .  A
C60         C313   1.409   1_545  A
C61          C62   1.410       .  A
C61          C66   1.450       .  S
C62          C63   1.416       .  A
C62          C78   1.452       .  S
C63         C318   1.420   1_545  A
C64         C317   1.420       .  A
C64          C67   1.452       .  S
C65          C68   1.398   1_545  A
C65         C326   1.399       .  A
C66          N83   1.157       .  T
C67          N85   1.157       .  T
C68          C69   1.414       .  A
C68          C73   1.455       .  S
C69          C70   1.448   1_565  A
C69          C75   1.448       .  S
C70         C524   1.601       .  S
C70         C325   1.448       .  A
C71          C72   1.412       .  A
C71         C324   1.448       .  A
C71          C74   1.447       .  S
C72         C319   1.399       .  A
C72          C76   1.456       .  S
C73          N80   1.157       .  T
C74         N589   1.157       .  T
C75          N79   1.157       .  T
C76          N82   1.157       .  T
C77          N86   1.157       .  T
C78          N84   1.158       .  T
N81         C582   1.157   1_455  T
C87          C88   1.401   1_545  A
C87          C92   1.418       .  A
C87         C105   1.454       .  S
C88         C347   1.498       .  S
C88         C343   1.397       .  A
C89          C90   1.415       .  A
C89         C342   1.397       .  A
C89          C94   1.456       .  S
C90         C345   1.450       .  A
C90         C106   1.445       .  S
C91          C92   1.449   1_565  A
C91         C344   1.450       .  A
C92          C95   1.450       .  S
C93         C342   1.498       .  S
C93          C96   1.414       .  A
C93         C354   1.411       .  A
C94         N111   1.157       .  T
C95         N113   1.157   1_455  T
C96          C97   1.410       .  A
C96         C101   1.449       .  S
C97          C98   1.410       .  A
C97         C103   1.452       .  S
C98         C353   1.415       .  A
C99         C100   1.409       .  A
C99         C352   1.415       .  A
C99         C102   1.452       .  S
C100        C347   1.411       .  A
C100        C104   1.452       .  S
C101        N108   1.157       .  T
C102        N109   1.157   1_554  T
C103        N107   1.157       .  T
C104        N110   1.157       .  T
C105        N114   1.157       .  T
C106        N112   1.156       .  T
C115        C116   1.411   1_545  A
C115        C120   1.410       .  A
C115        C133   1.451       .  S
C116        C121   1.503       .  S
C116        C371   1.414       .  A
C117        C118   1.413       .  A
C117        C370   1.414       .  A
C117        C122   1.448       .  S
C118        C119   1.411       .  A
C118        C134   1.451       .  S
C119        C374   1.415       .  A
C120        C373   1.415   1_545  A
C120        C123   1.452       .  S
C121        C128   1.397       .  A
C121        C378   1.399   1_565  A
C122        N139   1.157       .  T
C123        N141   1.157       .  T
C124        C125   1.420       .  A
C124        C375   1.399       .  A
C124        C129   1.456       .  S
C125        C380   1.451       .  A
C125        C131   1.447       .  S
C126        C523   1.612       .  S
C126        C127   1.451       .  A
C126        C379   1.451   1_565  A
C127        C128   1.417       .  A
C127        C130   1.449       .  S
C128        C132   1.455       .  S
C129        N136   1.157       .  T
C130        N645   1.157       .  T
C131        N135   1.157       .  T
C132        N138   1.157       .  T
C133        N142   1.157       .  T
C134        N140   1.157       .  T
N137        C638   1.157   1_455  T
C143        C148   1.419       .  A
C143        C652   1.401       .  A
C143        C161   1.454       .  S
C144        C149   1.500       .  S
C144        C145   1.398   1_455  A
C144        C651   1.401       .  A
C145        C146   1.415       .  A
C145        C150   1.455       .  S
C146        C147   1.449       .  A
C146        C162   1.449       .  S
C147        C269   1.610       .  S
C147        C656   1.448   1_655  A
C148        C655   1.448       .  A
C148        C151   1.449       .  S
C149        C156   1.413       .  A
C149        C660   1.412   1_455  A
C150        N167   1.157       .  T
C151        N423   1.157       .  T
C152        C153   1.410       .  A
C152        C657   1.412       .  A
C152        C157   1.451       .  S
C153        C662   1.413       .  A
C153        C159   1.452       .  S
C154        C521   1.482       .  S
C154        C155   1.411       .  A
C154        C661   1.413   1_455  A
C155        C156   1.412       .  A
C155        C158   1.451       .  S
C156        C160   1.448       .  S
C157        N164   1.157       .  T
C158        N165   1.157       .  T
C159        N163   1.157       .  T
C160        N166   1.157       .  T
C161        N170   1.157       .  T
C162        N168   1.157       .  T
N169        C405   1.157   1_545  T
C171        C172   1.396       .  A
C171        C176   1.416       .  A
C171        C189   1.456       .  S
C172        C177   1.504       .  S
C172        C681   1.401   1_455  A
C173        C174   1.420       .  A
C173        C680   1.401       .  A
C173        C178   1.454       .  S
C174        C683   1.448       .  A
C174        C190   1.448       .  S
C175        C176   1.452       .  A
C175        C682   1.448   1_455  A
C176        C179   1.445       .  S
C177        C184   1.411       .  A
C177        C688   1.413   1_455  A
C178        N195   1.157       .  T
C179        N197   1.156       .  T
C180        C181   1.414       .  A
C180        C685   1.413       .  A
C180        C185   1.449       .  S
C181        C690   1.413       .  A
C181        C187   1.451       .  S
C182        C520   1.489       .  S
C182        C183   1.416       .  A
C182        C689   1.413   1_455  A
C183        C184   1.411       .  A
C183        C186   1.452       .  S
C184        C188   1.451       .  S
C185        N192   1.157       .  T
C186        N193   1.157       .  T
C187        N191   1.157       .  T
C188        N194   1.157       .  T
C189        N198   1.157       .  T
C190        N196   1.157   1_545  T
C199        C204   1.414       .  A
C199        C708   1.412       .  A
C199        C217   1.451       .  S
C200        C205   1.505       .  S
C200        C201   1.413   1_655  A
C200        C707   1.412       .  A
C201        C202   1.410       .  A
C201        C206   1.453       .  S
C202        C203   1.419       .  A
C202        C218   1.452       .  S
C203        C712   1.420   1_455  A
C204        C711   1.420       .  A
C204        C207   1.451       .  S
C205        C212   1.398       .  A
C205        C716   1.401       .  A
C206        N223   1.157       .  T
C207        N225   1.158       .  T
C208        C209   1.420       .  A
C208        C713   1.401       .  A
C208        C213   1.453       .  S
C209        C718   1.448       .  A
C209        C215   1.450       .  S
C210        C270   1.613       .  S
C210        C211   1.451       .  A
C210        C717   1.448       .  A
C211        C212   1.415       .  A
C211        C214   1.444       .  S
C212        C216   1.460       .  S
C213        N220   1.157       .  T
C214        N475   1.156       .  T
C215        N219   1.157       .  T
C216        N222   1.157       .  T
C217        N226   1.157       .  T
C218        N224   1.157       .  T
N221        C468   1.156   1_545  T
C227        C232   1.408       .  A
C227        C736   1.412       .  A
C227        C245   1.448       .  S
C228        C233   1.496       .  S
C228        C229   1.412   1_655  A
C228        C735   1.412       .  A
C229        C230   1.410       .  A
C229        C234   1.451       .  S
C230        C231   1.411   1_455  A
C230        C246   1.451       .  S
C231        C740   1.411       .  A
C232        C739   1.411       .  A
C232        C235   1.453       .  S
C233        C236   1.400   1_655  A
C233        C748   1.397       .  A
C234        N251   1.157       .  T
C235        N253   1.157       .  T
C236        C237   1.416       .  A
C236        C241   1.454       .  S
C237        C238   1.447   1_455  A
C237        C243   1.450       .  S
C238        C747   1.451       .  A
C239        C240   1.415       .  A
C239        C746   1.451       .  A
C239        C242   1.448       .  S
C240        C741   1.397       .  A
C240        C244   1.456       .  S
C241        N248   1.157       .  T
C242        N249   1.157       .  T
C243        N247   1.157       .  T
C244        N250   1.157       .  T
C245        N254   1.157       .  T
C246        N252   1.157       .  T
O255       Ni263   1.914       .  S
O255        C265   1.281       .  A
O256       Ni263   1.917       .  S
O256        C774   1.281       .  A
O257       Ni263   1.922       .  S
O257        C775   1.282       .  A
O258       Ni263   1.913       .  S
O258        C268   1.280       .  A
O259       Ni264   1.912       .  S
O259        C776   1.280       .  A
O260       Ni264   1.913       .  S
O260        C267   1.280       .  A
O261       Ni264   1.924       .  S
O261        C266   1.283       .  A
O262       Ni264   1.922       .  S
O262        C773   1.283       .  A
Ni263      Ni772   2.388   1_455  S
Ni264      Ni771   2.388       .  S
C265        O770   1.283   1_455  A
C265        C457   1.498       .  S
C266        O764   1.281       .  A
C266        C944   1.488       .  S
C267        O765   1.282       .  A
C267        C916   1.483       .  S
C268        O767   1.280   1_455  A
C268        C485   1.477   1_455  S
C269        C345   1.610   1_655  S
C269        C888   1.612       .  S
C269        C429   1.616   1_655  S
C270        C296   1.606   1_655  S
C270        C832   1.601       .  S
C270        C492   1.605       .  S
O271       Ni279   1.917   1_556  S
O271        C281   1.282       .  A
O272       Ni279   1.920       .  S
O273       Ni279   1.909       .  S
O274       Ni279   1.910   1_556  S
O274        C284   1.278       .  A
O275       Ni280   1.918       .  S
O276       Ni280   1.928   1_554  S
O276        C283   1.283       .  A
O277       Ni280   1.909   1_554  S
O277        C282   1.279       .  A
O278       Ni280   1.903       .  S
C281        C317   1.488       .  S
C282        C352   1.481       .  S
C283        C373   1.484       .  S
C284        C289   1.474       .  S
C285        C290   1.408       .  A
C285        C303   1.451       .  S
C286        C291   1.503       .  S
C286        C287   1.417       .  A
C287        C288   1.410       .  A
C287        C292   1.451       .  S
C288        C289   1.409       .  A
C288        C304   1.451       .  S
C290        C293   1.452       .  S
C291        C294   1.402       .  A
C292        N309   1.157       .  T
C293        N311   1.157   1_556  T
C294        C295   1.415       .  A
C294        C299   1.454       .  S
C295        C296   1.449       .  A
C295        C301   1.448       .  S
C297        C298   1.410       .  A
C297        C300   1.447       .  S
C298        C302   1.454       .  S
C299        N306   1.157       .  T
C300        N307   1.157       .  T
C301        N305   1.157       .  T
C302        N308   1.157       .  T
C303        N312   1.157       .  T
C304        N310   1.157       .  T
C313        C318   1.407       .  A
C313        C331   1.453       .  S
C314        C319   1.495       .  S
C314        C315   1.411       .  A
C315        C316   1.410       .  A
C315        C320   1.450       .  S
C316        C317   1.416       .  A
C316        C332   1.452       .  S
C318        C321   1.452       .  S
C319        C322   1.398       .  A
C320        N337   1.157       .  T
C321        N339   1.157       .  T
C322        C323   1.414       .  A
C322        C327   1.455       .  S
C323        C324   1.448       .  A
C323        C329   1.448       .  S
C324        C778   1.601       .  S
C325        C326   1.412       .  A
C325        C328   1.447   1_545  S
C326        C330   1.456       .  S
C327        N334   1.157       .  T
C328        N843   1.157       .  T
C329        N333   1.157       .  T
C330        N336   1.157       .  T
C331        N340   1.157       .  T
C332        N338   1.158       .  T
N335        C836   1.157   1_455  T
C341        C342   1.401       .  A
C341        C346   1.418       .  A
C341        C359   1.455       .  S
C343        C344   1.414       .  A
C343        C348   1.456       .  S
C344        C360   1.445       .  S
C345        C346   1.449       .  A
C346        C349   1.450       .  S
C347        C350   1.414   1_565  A
C348        N365   1.157       .  T
C349        N367   1.157   1_455  T
C350        C351   1.410       .  A
C350        C355   1.449       .  S
C351        C352   1.410   1_545  A
C351        C357   1.452       .  S
C353        C354   1.409       .  A
C353        C356   1.452       .  S
C354        C358   1.452       .  S
C355        N362   1.157       .  T
C356        N363   1.157   1_554  T
C357        N361   1.157       .  T
C358        N364   1.157       .  T
C359        N368   1.157       .  T
C360        N366   1.156       .  T
C369        C370   1.411       .  A
C369        C374   1.410       .  A
C369        C387   1.451       .  S
C370        C375   1.503       .  S
C371        C372   1.414       .  A
C371        C376   1.448       .  S
C372        C373   1.411       .  A
C372        C388   1.451       .  S
C374        C377   1.452       .  S
C375        C382   1.397       .  A
C376        N393   1.157       .  T
C377        N395   1.157       .  T
C378        C379   1.420       .  A
C378        C383   1.456       .  S
C379        C385   1.447       .  S
C380        C777   1.612       .  S
C380        C381   1.451       .  A
C381        C382   1.417       .  A
C381        C384   1.449       .  S
C382        C386   1.455       .  S
C383        N390   1.157       .  T
C384        N899   1.157       .  T
C385        N389   1.157       .  T
C386        N392   1.157       .  T
C387        N396   1.157       .  T
C388        N394   1.157       .  T
N391        C892   1.157   1_455  T
C397        C906   1.401       .  A
C397        C402   1.419       .  A
C397        C415   1.454       .  S
C398        C403   1.500       .  S
C398        C905   1.401       .  A
C398        C399   1.398   1_455  A
C399        C400   1.415       .  A
C399        C404   1.455       .  S
C400        C401   1.449       .  A
C400        C416   1.449       .  S
C401        C910   1.448   1_655  A
C402        C909   1.448       .  A
C402        C405   1.449       .  S
C403        C914   1.412   1_455  A
C403        C410   1.413       .  A
C404        N421   1.157       .  T
C406        C911   1.412       .  A
C406        C407   1.410       .  A
C406        C411   1.451       .  S
C407        C916   1.414       .  A
C407        C413   1.452       .  S
C408        C775   1.483       .  S
C408        C915   1.414   1_455  A
C408        C409   1.411       .  A
C409        C410   1.413       .  A
C409        C412   1.452       .  S
C410        C414   1.448       .  S
C411        N418   1.157       .  T
C412        N419   1.157       .  T
C413        N417   1.157       .  T
C414        N420   1.157       .  T
C415        N424   1.157       .  T
C416        N422   1.157       .  T
C425        C426   1.396       .  A
C425        C430   1.416       .  A
C425        C443   1.456       .  S
C426        C431   1.504       .  S
C426        C935   1.401   1_455  A
C427        C934   1.401       .  A
C427        C428   1.420       .  A
C427        C432   1.454       .  S
C428        C937   1.448       .  A
C428        C444   1.448       .  S
C429        C936   1.448   1_455  A
C429        C430   1.452       .  A
C430        C433   1.445       .  S
C431        C942   1.413   1_455  A
C431        C438   1.411       .  A
C432        N449   1.157       .  T
C433        N451   1.156       .  T
C434        C939   1.413       .  A
C434        C435   1.414       .  A
C434        C439   1.449       .  S
C435        C944   1.413       .  A
C435        C441   1.451       .  S
C436        C774   1.488       .  S
C436        C943   1.413   1_455  A
C436        C437   1.416       .  A
C437        C438   1.411       .  A
C437        C440   1.452       .  S
C438        C442   1.451       .  S
C439        N446   1.157       .  T
C440        N447   1.157       .  T
C441        N445   1.157       .  T
C442        N448   1.157       .  T
C443        N452   1.157       .  T
C444        N450   1.157       .  T
C453        C962   1.412       .  A
C453        C458   1.414       .  A
C453        C471   1.451       .  S
C454        C459   1.505       .  S
C454        C961   1.412       .  A
C454        C455   1.413   1_655  A
C455        C456   1.410       .  A
C455        C460   1.453       .  S
C456        C457   1.419       .  A
C456        C472   1.452       .  S
C457        C966   1.420   1_455  A
C458        C965   1.420       .  A
C458        C461   1.451       .  S
C459        C970   1.401       .  A
C459        C466   1.398       .  A
C460        N477   1.157       .  T
C461        N479   1.158       .  T
C462        C967   1.401       .  A
C462        C463   1.420       .  A
C462        C467   1.454       .  S
C463        C972   1.449       .  A
C463        C469   1.450       .  S
C464        C971   1.449       .  A
C464        C465   1.451       .  A
C465        C466   1.415       .  A
C465        C468   1.444       .  S
C466        C470   1.460       .  S
C467        N474   1.157       .  T
C469        N473   1.157       .  T
C470        N476   1.157       .  T
C471        N480   1.157       .  T
C472        N478   1.157       .  T
C481        C990   1.412       .  A
C481        C486   1.408       .  A
C481        C499   1.449       .  S
C482        C487   1.496       .  S
C482        C989   1.412       .  A
C482        C483   1.412   1_655  A
C483        C484   1.410       .  A
C483        C488   1.451       .  S
C484        C485   1.411   1_455  A
C484        C500   1.451       .  S
C485        C994   1.411       .  A
C486        C993   1.411       .  A
C486        C489   1.453       .  S
C487        C490   1.400   1_655  A
C487       C1002   1.397       .  A
C488        N505   1.157       .  T
C489        N507   1.157       .  T
C490        C491   1.416       .  A
C490        C495   1.454       .  S
C491        C492   1.447   1_455  A
C491        C497   1.450       .  S
C492       C1001   1.451       .  A
C493       C1000   1.450       .  A
C493        C494   1.415       .  A
C493        C496   1.448       .  S
C494        C995   1.397       .  A
C494        C498   1.456       .  S
C495        N502   1.157       .  T
C496        N503   1.157       .  T
C497        N501   1.157       .  T
C498        N504   1.157       .  T
C499        N508   1.157       .  T
C500        N506   1.157       .  T
O509       Ni517   1.914       .  S
O509        C519   1.281       .  A
O510       Ni517   1.917       .  S
O511       Ni517   1.922       .  S
O512       Ni517   1.913       .  S
O512        C522   1.280       .  A
O513       Ni518   1.912       .  S
O514       Ni518   1.913       .  S
O514        C521   1.280   1_655  A
O515       Ni518   1.925       .  S
O515        C520   1.283   1_655  A
O516       Ni518   1.922       .  S
C519        C711   1.498       .  S
C522        C739   1.477       .  S
C523        C599   1.610       .  S
C523        C909   1.610       .  S
C523        C683   1.616   1_565  S
C524        C550   1.606       .  S
C524        C972   1.613   1_545  S
C524        C746   1.605       .  S
O525       Ni533   1.917   1_556  S
O525        C535   1.282       .  A
O526       Ni533   1.919       .  S
O526        C790   1.282   1_545  A
O527       Ni533   1.909       .  S
O527        C791   1.279   1_545  A
O528       Ni533   1.910   1_556  S
O528        C538   1.278       .  A
O529       Ni534   1.918       .  S
O529        C792   1.281       .  A
O530       Ni534   1.927   1_554  S
O530        C537   1.283       .  A
O531       Ni534   1.908   1_554  S
O531        C536   1.279       .  A
O532       Ni534   1.902       .  S
O532        C789   1.278       .  A
Ni533      Ni788   2.390   1_544  S
Ni534      Ni787   2.390   1_556  S
C535        O786   1.278   1_545  A
C535        C571   1.489       .  S
C536        O780   1.282       .  A
C536        C606   1.481       .  S
C537        O781   1.279       .  A
C537        C627   1.484       .  S
C538        O783   1.281   1_545  A
C538        C543   1.475       .  S
C539        C794   1.417       .  A
C539        C544   1.408       .  A
C539        C557   1.451       .  S
C540        C545   1.503       .  S
C540        C793   1.417       .  A
C540        C541   1.417       .  A
C541        C542   1.410   1_545  A
C541        C546   1.451   1_545  S
C542        C543   1.409   1_565  A
C542        C558   1.451       .  S
C543        C798   1.409       .  A
C544        C797   1.409       .  A
C544        C547   1.452       .  S
C545        C548   1.402       .  A
C545        C806   1.403   1_545  A
C546        N563   1.157       .  T
C547        N565   1.157   1_556  T
C548        C549   1.415       .  A
C548        C553   1.454       .  S
C549        C550   1.449       .  A
C549        C555   1.448       .  S
C550        C805   1.444   1_545  A
C551        C804   1.444       .  A
C551        C552   1.410       .  A
C551        C554   1.447       .  S
C552        C799   1.403       .  A
C552        C556   1.454       .  S
C553        N560   1.157       .  T
C554        N561   1.157       .  T
C555        N559   1.157       .  T
C556        N562   1.157       .  T
C557        N566   1.157       .  T
C558        N564   1.157       .  T
C567        C822   1.409       .  A
C567        C572   1.406       .  A
C567        C585   1.453       .  S
C568        C573   1.495       .  S
C568        C821   1.409   1_545  A
C568        C569   1.411       .  A
C569        C570   1.410       .  A
C569        C574   1.450       .  S
C570        C571   1.416       .  A
C570        C586   1.452       .  S
C571        C826   1.420   1_545  A
C572        C825   1.420       .  A
C572        C575   1.452       .  S
C573        C576   1.398   1_545  A
C573        C834   1.399       .  A
C574        N591   1.157       .  T
C575        N593   1.157       .  T
C576        C577   1.414       .  A
C576        C581   1.455       .  S
C577        C578   1.448   1_565  A
C577        C583   1.448       .  S
C578        C833   1.448       .  A
C579        C832   1.448       .  A
C579        C580   1.412       .  A
C579        C582   1.447       .  S
C580        C827   1.399       .  A
C580        C584   1.456       .  S
C581        N588   1.157       .  T
C583        N587   1.157       .  T
C584        N590   1.157       .  T
C585        N594   1.157       .  T
C586        N592   1.158       .  T
C595        C596   1.401   1_545  A
C595        C600   1.418       .  A
C595        C613   1.454       .  S
C596        C855   1.498       .  S
C596        C851   1.397       .  A
C597        C850   1.397       .  A
C597        C598   1.415       .  A
C597        C602   1.456       .  S
C598        C853   1.450       .  A
C598        C614   1.445       .  S
C599        C852   1.450       .  A
C599        C600   1.449   1_565  A
C600        C603   1.450       .  S
C601        C850   1.498       .  S
C601        C604   1.414       .  A
C601        C862   1.411       .  A
C602        N619   1.157       .  T
C603        N621   1.157       .  T
C604        C605   1.410       .  A
C604        C609   1.449       .  S
C605        C606   1.410       .  A
C605        C611   1.452       .  S
C606        C861   1.415       .  A
C607        C860   1.415       .  A
C607        C608   1.409       .  A
C607        C610   1.452       .  S
C608        C855   1.411       .  A
C608        C612   1.452       .  S
C609        N616   1.157       .  T
C610        N617   1.157   1_554  T
C611        N615   1.157       .  T
C612        N618   1.157       .  T
C613        N622   1.157       .  T
C614        N620   1.156       .  T
C623        C624   1.411   1_545  A
C623        C628   1.410       .  A
C623        C641   1.451       .  S
C624        C629   1.503       .  S
C624        C879   1.414       .  A
C625        C878   1.414       .  A
C625        C626   1.413       .  A
C625        C630   1.448       .  S
C626        C627   1.411       .  A
C626        C642   1.451       .  S
C627        C882   1.415       .  A
C628        C881   1.415   1_545  A
C628        C631   1.452       .  S
C629        C886   1.399   1_565  A
C629        C636   1.397       .  A
C630        N647   1.157       .  T
C631        N649   1.157       .  T
C632        C883   1.399       .  A
C632        C633   1.420       .  A
C632        C637   1.456       .  S
C633        C888   1.451       .  A
C633        C639   1.447       .  S
C634        C887   1.451   1_565  A
C634        C635   1.451       .  A
C635        C636   1.417       .  A
C635        C638   1.449       .  S
C636        C640   1.455       .  S
C637        N644   1.157       .  T
C639        N643   1.157       .  T
C640        N646   1.157       .  T
C641        N650   1.157       .  T
C642        N648   1.157       .  T
C651        C656   1.419       .  A
C651        C669   1.454       .  S
C652        C657   1.500       .  S
C652        C653   1.398       .  A
C653        C654   1.415       .  A
C653        C658   1.455       .  S
C654        C655   1.449       .  A
C654        C670   1.449       .  S
C655        C777   1.610       .  S
C656        C659   1.449       .  S
C657        C664   1.413       .  A
C658        N675   1.157       .  T
C659        N931   1.157       .  T
C660        C661   1.410       .  A
C660        C665   1.451       .  S
C661        C667   1.452       .  S
C662        C663   1.411       .  A
C663        C664   1.412       .  A
C663        C666   1.451       .  S
C664        C668   1.448       .  S
C665        N672   1.157       .  T
C666        N673   1.157       .  T
C667        N671   1.157       .  T
C668        N674   1.157       .  T
C669        N678   1.157       .  T
C670        N676   1.157       .  T
N677        C913   1.157   1_545  T
C679        C680   1.396       .  A
C679        C684   1.416       .  A
C679        C697   1.456       .  S
C680        C685   1.504       .  S
C681        C682   1.420       .  A
C681        C686   1.454       .  S
C682        C698   1.448       .  S
C683        C684   1.452       .  A
C684        C687   1.445       .  S
C685        C692   1.411       .  A
C686        N703   1.157       .  T
C687        N705   1.156       .  T
C688        C689   1.414       .  A
C688        C693   1.449       .  S
C689        C695   1.451       .  S
C690        C691   1.416       .  A
C691        C692   1.411       .  A
C691        C694   1.452       .  S
C692        C696   1.451       .  S
C693        N700   1.157       .  T
C694        N701   1.157       .  T
C695        N699   1.157       .  T
C696        N702   1.157       .  T
C697        N706   1.157       .  T
C698        N704   1.157   1_545  T
C707        C712   1.414       .  A
C707        C725   1.451       .  S
C708        C713   1.505       .  S
C708        C709   1.413       .  A
C709        C710   1.410       .  A
C709        C714   1.453       .  S
C710        C711   1.419       .  A
C710        C726   1.452       .  S
C712        C715   1.451       .  S
C713        C720   1.398       .  A
C714        N731   1.157       .  T
C715        N733   1.158       .  T
C716        C717   1.420       .  A
C716        C721   1.453   1_655  S
C717        C723   1.450       .  S
C718        C778   1.613       .  S
C718        C719   1.451       .  A
C719        C720   1.415       .  A
C719        C722   1.444       .  S
C720        C724   1.460       .  S
C721        N728   1.157       .  T
C722        N983   1.156       .  T
C723        N727   1.157       .  T
C724        N730   1.157       .  T
C725        N734   1.157       .  T
C726        N732   1.157       .  T
N729        C976   1.156   1_545  T
C735        C740   1.408       .  A
C735        C753   1.448       .  S
C736        C741   1.496       .  S
C736        C737   1.412       .  A
C737        C738   1.410       .  A
C737        C742   1.451       .  S
C738        C739   1.411       .  A
C738        C754   1.451       .  S
C740        C743   1.453       .  S
C741        C744   1.400       .  A
C742        N759   1.157       .  T
C743        N761   1.157       .  T
C744        C745   1.416       .  A
C744        C749   1.454       .  S
C745        C746   1.447       .  A
C745        C751   1.450       .  S
C747        C748   1.415       .  A
C747        C750   1.448       .  S
C748        C752   1.456       .  S
C749        N756   1.157       .  T
C750        N757   1.157       .  T
C751        N755   1.157       .  T
C752        N758   1.157       .  T
C753        N762   1.157       .  T
C754        N760   1.157       .  T
O763       Ni771   1.914       .  S
O763        C773   1.281       .  A
O764       Ni771   1.917       .  S
O765       Ni771   1.922       .  S
O766       Ni771   1.913       .  S
O766        C776   1.280       .  A
O767       Ni772   1.912       .  S
O768       Ni772   1.913       .  S
O768        C775   1.280   1_655  A
O769       Ni772   1.924       .  S
O769        C774   1.283   1_655  A
O770       Ni772   1.922       .  S
C773        C965   1.498       .  S
C776        C993   1.477       .  S
C777        C853   1.610       .  S
C777        C937   1.616       .  S
C778        C804   1.606       .  S
C778       C1000   1.605       .  S
O779       Ni787   1.917   1_556  S
O779        C789   1.282       .  A
O780       Ni787   1.920       .  S
O781       Ni787   1.909       .  S
O782       Ni787   1.910   1_556  S
O782        C792   1.278       .  A
O783       Ni788   1.918       .  S
O784       Ni788   1.928   1_554  S
O784        C791   1.283       .  A
O785       Ni788   1.909   1_554  S
O785        C790   1.279       .  A
O786       Ni788   1.903       .  S
C789        C825   1.488       .  S
C790        C860   1.481       .  S
C791        C881   1.484       .  S
C792        C797   1.474       .  S
C793        C798   1.408       .  A
C793        C811   1.451       .  S
C794        C799   1.503       .  S
C794        C795   1.417       .  A
C795        C796   1.410       .  A
C795        C800   1.451       .  S
C796        C797   1.409       .  A
C796        C812   1.451       .  S
C798        C801   1.452       .  S
C799        C802   1.402       .  A
C800        N817   1.157       .  T
C801        N819   1.157   1_556  T
C802        C803   1.415       .  A
C802        C807   1.454       .  S
C803        C804   1.449       .  A
C803        C809   1.448       .  S
C805        C806   1.410       .  A
C805        C808   1.447       .  S
C806        C810   1.454       .  S
C807        N814   1.157       .  T
C808        N815   1.157       .  T
C809        N813   1.157       .  T
C810        N816   1.157       .  T
C811        N820   1.157       .  T
C812        N818   1.157       .  T
C821        C826   1.407       .  A
C821        C839   1.453       .  S
C822        C827   1.495       .  S
C822        C823   1.411       .  A
C823        C824   1.410       .  A
C823        C828   1.450       .  S
C824        C825   1.416       .  A
C824        C840   1.452       .  S
C826        C829   1.452       .  S
C827        C830   1.398       .  A
C828        N845   1.157       .  T
C829        N847   1.157       .  T
C830        C831   1.414       .  A
C830        C835   1.455       .  S
C831        C832   1.448       .  A
C831        C837   1.448       .  S
C833        C834   1.412       .  A
C833        C836   1.447   1_545  S
C834        C838   1.456       .  S
C835        N842   1.157       .  T
C837        N841   1.157       .  T
C838        N844   1.157       .  T
C839        N848   1.157       .  T
C840        N846   1.158       .  T
C849        C850   1.401       .  A
C849        C854   1.418       .  A
C849        C867   1.455       .  S
C851        C852   1.414       .  A
C851        C856   1.456       .  S
C852        C868   1.445       .  S
C853        C854   1.449       .  A
C854        C857   1.450       .  S
C855        C858   1.414   1_565  A
C856        N873   1.157       .  T
C857        N875   1.157       .  T
C858        C859   1.410       .  A
C858        C863   1.449       .  S
C859        C860   1.410   1_545  A
C859        C865   1.452       .  S
C861        C862   1.409       .  A
C861        C864   1.452       .  S
C862        C866   1.452       .  S
C863        N870   1.157       .  T
C864        N871   1.157   1_554  T
C865        N869   1.157       .  T
C866        N872   1.157       .  T
C867        N876   1.157       .  T
C868        N874   1.156       .  T
C877        C878   1.411       .  A
C877        C882   1.410       .  A
C877        C895   1.451       .  S
C878        C883   1.503       .  S
C879        C880   1.414       .  A
C879        C884   1.448       .  S
C880        C881   1.411       .  A
C880        C896   1.451       .  S
C882        C885   1.452       .  S
C883        C890   1.397       .  A
C884        N901   1.157       .  T
C885        N903   1.157       .  T
C886        C887   1.420       .  A
C886        C891   1.456       .  S
C887        C893   1.447       .  S
C888        C889   1.451       .  A
C889        C890   1.417       .  A
C889        C892   1.449       .  S
C890        C894   1.455       .  S
C891        N898   1.157       .  T
C893        N897   1.157       .  T
C894        N900   1.157       .  T
C895        N904   1.157       .  T
C896        N902   1.157       .  T
C905        C910   1.419       .  A
C905        C923   1.454       .  S
C906        C911   1.500       .  S
C906        C907   1.398       .  A
C907        C908   1.415       .  A
C907        C912   1.455       .  S
C908        C909   1.449       .  A
C908        C924   1.449       .  S
C910        C913   1.449       .  S
C911        C918   1.413       .  A
C912        N929   1.157       .  T
C914        C915   1.410       .  A
C914        C919   1.451       .  S
C915        C921   1.452       .  S
C916        C917   1.411       .  A
C917        C918   1.413       .  A
C917        C920   1.451       .  S
C918        C922   1.448       .  S
C919        N926   1.157       .  T
C920        N927   1.157       .  T
C921        N925   1.157       .  T
C922        N928   1.157       .  T
C923        N932   1.157       .  T
C924        N930   1.157       .  T
C933        C934   1.396       .  A
C933        C938   1.416       .  A
C933        C951   1.456       .  S
C934        C939   1.504       .  S
C935        C936   1.420       .  A
C935        C940   1.454       .  S
C936        C952   1.448       .  S
C937        C938   1.452       .  A
C938        C941   1.445       .  S
C939        C946   1.411       .  A
C940        N957   1.157       .  T
C941        N959   1.156       .  T
C942        C943   1.414       .  A
C942        C947   1.449       .  S
C943        C949   1.451       .  S
C944        C945   1.416       .  A
C945        C946   1.411       .  A
C945        C948   1.452       .  S
C946        C950   1.451       .  S
C947        N954   1.157       .  T
C948        N955   1.157       .  T
C949        N953   1.157       .  T
C950        N956   1.157       .  T
C951        N960   1.157       .  T
C952        N958   1.157       .  T
C961        C966   1.414       .  A
C961        C979   1.451       .  S
C962        C967   1.505       .  S
C962        C963   1.413       .  A
C963        C964   1.410       .  A
C963        C968   1.453       .  S
C964        C965   1.419       .  A
C964        C980   1.452       .  S
C966        C969   1.451       .  S
C967        C974   1.398       .  A
C968        N985   1.157       .  T
C969        N987   1.158       .  T
C970        C971   1.420       .  A
C970        C975   1.454   1_655  S
C971        C977   1.450       .  S
C972        C973   1.451       .  A
C973        C974   1.415       .  A
C973        C976   1.444       .  S
C974        C978   1.460       .  S
C975        N982   1.157       .  T
C977        N981   1.157       .  T
C978        N984   1.157       .  T
C979        N988   1.157       .  T
C980        N986   1.157       .  T
C989        C994   1.408       .  A
C989       C1007   1.449       .  S
C990        C995   1.496       .  S
C990        C991   1.412       .  A
C991        C992   1.410       .  A
C991        C996   1.451       .  S
C992        C993   1.411       .  A
C992       C1008   1.451       .  S
C994        C997   1.453       .  S
C995        C998   1.400       .  A
C996       N1013   1.157       .  T
C997       N1015   1.157       .  T
C998        C999   1.416       .  A
C998       C1003   1.454       .  S
C999       C1000   1.447       .  A
C999       C1005   1.450       .  S
C1001      C1002   1.415       .  A
C1001      C1004   1.448       .  S
C1002      C1006   1.456       .  S
C1003      N1010   1.157       .  T
C1004      N1011   1.157       .  T
C1005      N1009   1.157       .  T
C1006      N1012   1.157       .  T
C1007      N1016   1.157       .  T
C1008      N1014   1.157       .  T
