geometry optimzed in LAMMPS
_audit_creation_date              2020-11-30 
_audit_creation_method            'lammps2cif' 
_symmetry_space_group_name_H-M    'P1' 
_symmetry_Int_Tables_number       1 
_symmetry_cell_setting            triclinic 
loop_ 
_symmetry_equiv_pos_as_xyz 
  x,y,z 
_cell_length_a                    43.99046514 
_cell_length_b                    43.37251070588697 
_cell_length_c                    44.0243723973126 
_cell_angle_alpha                 89.86148093986657 
_cell_angle_beta                  92.98860635258949 
_cell_angle_gamma                 92.09769215840824 
loop_ 
_atom_site_label 
_atom_site_type_symbol 
_atom_site_fract_x 
_atom_site_fract_y 
_atom_site_fract_z 
_atom_site_charge 
N1          N  0.59882451  0.10902749  0.12047838    -0.26400
N2          N  0.60058674  0.13087760  0.09954207    -0.34300
C3          C  0.57222962  0.13678779  0.08854219     0.01900
C4          C  0.55153089  0.11839518  0.10370457     0.07900
C5          C  0.56924333  0.10084508  0.12355395    -0.05200
H6          H  0.56709526  0.15231594  0.06985717     0.08600
H7          H  0.56132590  0.08210902  0.13772552     0.09800
Cu8        Cu  0.64172188  0.15037220  0.08540943     0.44200
Cu9        Cu  0.63714460  0.08930576  0.14164299     0.42000
Cu10       Cu  0.71092852  0.12295196  0.12350660     0.43900
N11         N  0.68555937  0.16616632  0.07526555    -0.33800
N12         N  0.71070292  0.15579667  0.08881142    -0.28100
C13         C  0.73502830  0.16943697  0.07623291    -0.04200
C14         C  0.72490884  0.18997943  0.05398622     0.08000
C15         C  0.69333984  0.18693813  0.05397554     0.01800
H16         H  0.75826683  0.16391996  0.08240662     0.09500
H17         H  0.67718204  0.19844714  0.03890589     0.08600
N18         N  0.70534479  0.08831847  0.15591873    -0.35300
N19         N  0.67859946  0.07490596  0.16126929    -0.27400
C20         C  0.68293116  0.05167191  0.18125174    -0.02700
C21         C  0.71370191  0.05115343  0.18940156     0.05900
C22         C  0.72734216  0.07450227  0.17292994     0.04000
H23         H  0.66508283  0.03631184  0.18914707     0.09100
H24         H  0.75146335  0.08010317  0.17226846     0.08000
N25         N  0.07614349  0.27223785  0.14368173    -0.26400
N26         N  0.06417803  0.29867775  0.15055124    -0.34300
C27         C  0.04137151  0.29334101  0.16924245     0.01900
C28         C  0.03931103  0.26199446  0.17441022     0.07900
C29         C  0.06174708  0.24917750  0.15828023    -0.05200
H30         H  0.02786364  0.31092455  0.17870948     0.08600
H31         H  0.06688713  0.22502705  0.15684289     0.09800
Cu32       Cu  0.07932189  0.34032747  0.13347655     0.44200
Cu33       Cu  0.10949655  0.26938137  0.11264028     0.42000
Cu34       Cu  0.12029676  0.33791353  0.06439957     0.43900
N35         N  0.09087436  0.37900351  0.10892680    -0.33800
N36         N  0.10335719  0.37848232  0.08225055    -0.28100
C37         C  0.10306821  0.40727152  0.07048209    -0.04200
C38         C  0.09048962  0.42657322  0.09122248     0.08000
C39         C  0.08315605  0.40785234  0.11522848     0.01800
H40         H  0.11108935  0.41363395  0.04843183     0.09500
H41         H  0.07115472  0.41424268  0.13492901     0.08600
N42         N  0.13961598  0.29497326  0.05729441    -0.35300
N43         N  0.13697969  0.27114208  0.07602002    -0.27400
C44         C  0.15315061  0.24773442  0.06622323    -0.02700
C45         C  0.16629650  0.25710105  0.03990048     0.05900
C46         C  0.15722372  0.28700129  0.03458947     0.04000
H47         H  0.15426749  0.22526632  0.07687985     0.09100
H48         H  0.16314297  0.30187777  0.01588357     0.08000
N49         N  0.10152400  0.58829432  0.10581247    -0.26400
N50         N  0.08287120  0.58576329  0.12835637    -0.34300
C51         C  0.07231717  0.55614828  0.12960894     0.01900
C52         C  0.08547906  0.53947733  0.10712224     0.07900
C53         C  0.10346581  0.56075169  0.09233839    -0.05200
H54         H  0.05507046  0.54786760  0.14452077     0.08600
H55         H  0.11617980  0.55675255  0.07241662     0.09800
Cu56       Cu  0.07204757  0.62416204  0.15442446     0.44200
Cu57       Cu  0.12209374  0.62911177  0.09230275     0.42000
Cu58       Cu  0.11416755  0.69711982  0.13502671     0.43900
N59         N  0.06620018  0.66734633  0.17481116    -0.33800
N60         N  0.08132382  0.69305829  0.16754442    -0.28100
C61         C  0.07078353  0.71675563  0.18305072    -0.04200
C62         C  0.04814174  0.70582588  0.20150250     0.08000
C63         C  0.04582676  0.67431112  0.19544529     0.01800
H64         H  0.07805318  0.74049787  0.17960928     0.09500
H65         H  0.02970824  0.65781346  0.20465290     0.08600
N66         N  0.14169172  0.69595946  0.09788004    -0.35300
N67         N  0.14306453  0.67061390  0.08146554    -0.27400
C68         C  0.16001856  0.67639966  0.05750153    -0.02700
C69         C  0.17020789  0.70681477  0.05912065     0.05900
C70         C  0.15840462  0.71875058  0.08500587     0.04000
H71         H  0.16459469  0.65965343  0.04030262     0.09100
H72         H  0.16079900  0.74225595  0.09317010     0.08000
N73         N  0.39209107  0.11465466  0.11659553    -0.26400
N74         N  0.38907898  0.12843457  0.08985022    -0.34300
C75         C  0.41641116  0.13075750  0.07752982     0.01900
C76         C  0.43786559  0.11844198  0.09769181     0.07900
C77         C  0.42168898  0.10840215  0.12226733    -0.05200
H78         H  0.42026929  0.14002016  0.05516160     0.08600
H79         H  0.43042064  0.09570734  0.14182118     0.09800
Cu80       Cu  0.34763321  0.14253247  0.07090529     0.44200
Cu81       Cu  0.35439378  0.10140236  0.14115199     0.42000
Cu82       Cu  0.27858496  0.12357523  0.10890614     0.43900
N83         N  0.30524204  0.15792311  0.05599622    -0.33800
N84         N  0.27961651  0.15180527  0.06962173    -0.28100
C85         C  0.25667062  0.16545724  0.05354910    -0.04200
C86         C  0.26857083  0.18094542  0.02872872     0.08000
C87         C  0.29938346  0.17526187  0.03119676     0.01800
H88         H  0.23298616  0.16335539  0.05893298     0.09500
H89         H  0.31638270  0.18286674  0.01564943     0.08600
N90         N  0.28574803  0.09372904  0.14659324    -0.35300
N91         N  0.31292257  0.08618937  0.15806564    -0.27400
C92         C  0.30939712  0.06527753  0.18045686    -0.02700
C93         C  0.27855908  0.05944825  0.18389144     0.05900
C94         C  0.26437660  0.07763206  0.16162570     0.04000
H95         H  0.32806009  0.05375866  0.19196951     0.09100
H96         H  0.24016316  0.07813622  0.15602058     0.08000
N97         N  0.17983379  0.08210810  0.69127279    -0.26400
N98         N  0.18161077  0.06654331  0.66569196    -0.34300
C99         C  0.19537989  0.03995717  0.67155090     0.01900
C100        C  0.20265532  0.03907114  0.70230229     0.07900
C101        C  0.19291915  0.06609615  0.71428504    -0.05200
H102        H  0.19835121  0.02211122  0.65495638     0.08600
H103        H  0.19280764  0.07229187  0.73806590     0.09800
Cu104      Cu  0.15985618  0.07839249  0.62539996     0.44200
Cu105      Cu  0.15138255  0.11832763  0.69506416     0.42000
Cu106      Cu  0.09038411  0.11634808  0.63505448     0.43900
N107        N  0.12909524  0.08667264  0.59015908    -0.33800
N108        N  0.10249439  0.09899735  0.59371134    -0.28100
C109        C  0.08710447  0.09985481  0.56654152    -0.04200
C110        C  0.10531689  0.08794701  0.54509635     0.08000
C111        C  0.13173256  0.07986833  0.56075157     0.01800
H112        H  0.06500602  0.10968471  0.56249094     0.09500
H113        H  0.15141810  0.06979442  0.55153332     0.08600
N114        N  0.08663265  0.13433470  0.67826735    -0.35300
N115        N  0.10939109  0.13685762  0.69913180    -0.27400
C116        C  0.09901537  0.14775965  0.72501489    -0.02700
C117        C  0.06826782  0.15189310  0.72017334     0.05900
C118        C  0.06098604  0.14333411  0.69040897     0.04000
H119        H  0.11237620  0.15029232  0.74625235     0.09100
H120        H  0.03873633  0.14277749  0.67868833     0.08000
N121        N  0.13093719  0.11659249  0.39057381    -0.26400
N122        N  0.10717411  0.13422117  0.39208308    -0.34300
C123        C  0.09530115  0.13072626  0.41933263     0.01900
C124        C  0.11248780  0.11021102  0.43606933     0.07900
C125        C  0.13500217  0.10160409  0.41729073    -0.05200
H126        H  0.07435441  0.14069763  0.42568576     0.08600
H127        H  0.15128557  0.08382282  0.42168137     0.09800
Cu128      Cu  0.08756133  0.15786360  0.35604102     0.44200
Cu129      Cu  0.15210841  0.10971474  0.35000543     0.42000
Cu130      Cu  0.11272569  0.14195272  0.28212716     0.43900
N131        N  0.06625642  0.17437446  0.31694685    -0.33800
N132        N  0.07473494  0.16765600  0.28950915    -0.28100
C133        C  0.05565524  0.18070583  0.26881365    -0.04200
C134        C  0.03466007  0.19733148  0.28400713     0.08000
C135        C  0.04186571  0.19212689  0.31453357     0.01800
H136        H  0.05694074  0.17761867  0.24462192     0.09500
H137        H  0.03014283  0.20059945  0.33365920     0.08600
N138        N  0.15149174  0.11587139  0.28114748    -0.35300
N139        N  0.16527220  0.10378189  0.30562802    -0.27400
C140        C  0.18699190  0.08519561  0.29681106    -0.02700
C141        C  0.18739462  0.08631219  0.26545517     0.05900
C142        C  0.16445311  0.10564676  0.25615877     0.04000
H143        H  0.20023268  0.07055131  0.31193403     0.09100
H144        H  0.15615046  0.10992598  0.23302949     0.08000
N145        N  0.18562384  0.92617836  0.26663538    -0.26400
N146        N  0.19196966  0.94358328  0.29100406    -0.34300
C147        C  0.21070897  0.96718144  0.28301688     0.01900
C148        C  0.21617350  0.96481923  0.25222509     0.07900
C149        C  0.19968992  0.93848209  0.24274335    -0.05200
H150        H  0.21901024  0.98549514  0.29826989     0.08600
H151        H  0.19675640  0.92951180  0.21987977     0.09800
Cu152      Cu  0.17350341  0.93618174  0.33406959     0.44200
Cu153      Cu  0.15703717  0.88702343  0.26507511     0.42000
Cu154      Cu  0.12838406  0.86649346  0.33653347     0.43900
N155        N  0.15278868  0.92041824  0.37388403    -0.33800
N156        N  0.13794976  0.89339124  0.37425504    -0.28100
C157        C  0.12768314  0.88794038  0.40197836    -0.04200
C158        C  0.13584776  0.91283085  0.42030404     0.08000
C159        C  0.15163303  0.93327985  0.40178063     0.01800
H160        H  0.11397441  0.86788260  0.40784684     0.09500
H161        H  0.16157567  0.95566178  0.40817801     0.08600
N162        N  0.11432565  0.84447377  0.29684617    -0.35300
N163        N  0.12525286  0.85115415  0.27012139    -0.27400
C164        C  0.10981238  0.83395794  0.24857381    -0.02700
C165        C  0.08817985  0.81606192  0.26284784     0.05900
C166        C  0.09134794  0.82343843  0.29325198     0.04000
H167        H  0.11262358  0.83599160  0.22437183     0.09100
H168        H  0.07723855  0.81520433  0.31119179     0.08000
C169        C  0.26342776  0.03411281  0.20257220     0.30900
C170        C  0.23339145  0.98838360  0.23322112     0.30900
C171        C  0.25377698  0.00499947  0.18382363    -0.05300
C172        C  0.28132876  0.02049656  0.23041694    -0.06100
C173        C  0.23347042  0.04315256  0.21613031    -0.06000
C174        C  0.23832100  0.98123762  0.19945261    -0.05300
C175        C  0.26573660  0.99704864  0.24559074    -0.06100
C176        C  0.21826292  0.01968104  0.23168531    -0.06000
C177        C  0.24464708  0.95392575  0.18494131    -0.31400
N178        N  0.26204592  0.96027395  0.16101896     0.15100
C179        C  0.26849545  0.99105002  0.16085361    -0.31400
H180        H  0.28519252  0.00226480  0.14691085     0.17100
C181        C  0.28330371  0.98919273  0.27081641    -0.30400
N182        N  0.30918597  0.00719645  0.27202001     0.13800
C183        C  0.30825557  0.02661506  0.24760717    -0.30400
C184        C  0.19876331  0.03356195  0.25046814    -0.30600
N185        N  0.20130899  0.06446299  0.24672727     0.14300
H186        H  0.18547366  0.02228901  0.26755641     0.17000
C187        C  0.22280620  0.07075970  0.22635399    -0.30700
H188        H  0.23213768  0.09360825  0.22166608     0.17000
H189        H  0.32484495  0.04502985  0.24393420     0.17000
H190        H  0.24031015  0.93085572  0.19340325     0.17100
H191        H  0.27715966  0.97241841  0.28791982     0.17000
N192        N  0.39163838  0.99640145  0.37517673    -0.02600
C193        C  0.40660688  0.01874412  0.39212067     0.00000
C194        C  0.41934793  0.00629902  0.41856595    -0.22900
C195        C  0.41178942  0.97525764  0.41796750    -0.23100
C196        C  0.39462577  0.96984439  0.39122311    -0.00100
H197        H  0.43167188  0.01869248  0.43692787     0.13700
H198        H  0.41741762  0.95861989  0.43554582     0.13700
N199        N  0.28561692  0.89588992  0.11655219    -0.26400
N200        N  0.30965821  0.91503924  0.11576630    -0.34300
C201        C  0.30462242  0.94096481  0.13109944     0.01900
C202        C  0.27607104  0.93797483  0.14254449     0.07900
C203        C  0.26449286  0.90911481  0.13307070    -0.05200
H204        H  0.32102023  0.95998259  0.13459394     0.08600
H205        H  0.24249722  0.89867159  0.13767562     0.09800
Cu206      Cu  0.34983091  0.90346546  0.09743094     0.44200
Cu207      Cu  0.28487298  0.85293915  0.09409580     0.42000
Cu208      Cu  0.35974520  0.82637293  0.07009880     0.43900
N209        N  0.39182239  0.88692850  0.08882215    -0.33800
N210        N  0.39670610  0.85826140  0.08068306    -0.28100
C211        C  0.42723232  0.85529180  0.07976763    -0.04200
C212        C  0.44175758  0.88360430  0.08731651     0.08000
C213        C  0.41845755  0.90290514  0.09271116     0.01800
H214        H  0.43800106  0.83443768  0.07332037     0.09500
H215        H  0.42071109  0.92684253  0.09959585     0.08600
N216        N  0.31696426  0.80338276  0.05906942    -0.35300
N217        N  0.29052373  0.81325630  0.06756610    -0.27400
C218        C  0.26779358  0.79540273  0.05435964    -0.02700
C219        C  0.27994916  0.77273060  0.03677763     0.05900
C220        C  0.31133111  0.77883108  0.04037281     0.04000
H221        H  0.24392211  0.79996613  0.05585808     0.09100
H222        H  0.32872841  0.76737271  0.02864186     0.08000
N223        N  0.60033511  0.86852213  0.11565566    -0.26400
N224        N  0.59984060  0.88966474  0.13723720    -0.34300
C225        C  0.57191013  0.90168938  0.13632789     0.01900
C226        C  0.55383762  0.88685437  0.11364023     0.07900
C227        C  0.57266609  0.86607550  0.10101505    -0.05200
H228        H  0.56544019  0.92037166  0.15059600     0.08600
H229        H  0.56717267  0.85154014  0.08141275     0.09800
Cu230      Cu  0.63805846  0.90151779  0.16608864     0.44200
Cu231      Cu  0.63975973  0.84685198  0.10428364     0.42000
Cu232      Cu  0.70858209  0.86285237  0.15115573     0.43900
N233        N  0.67938799  0.90879402  0.19168966    -0.33800
N234        N  0.70485169  0.89497393  0.18615919    -0.28100
C235        C  0.72754003  0.90659631  0.20504246    -0.04200
C236        C  0.71592675  0.92832451  0.22404143     0.08000
C237        C  0.68535897  0.92933060  0.21436653     0.01800
H238        H  0.75116402  0.90098058  0.20366113     0.09500
H239        H  0.66902939  0.94523635  0.22209087     0.08600
N240        N  0.70685390  0.83397642  0.11294017    -0.35300
N241        N  0.68189302  0.82937936  0.09511601    -0.27400
C242        C  0.68844257  0.81196110  0.07114925    -0.02700
C243        C  0.71878535  0.80482246  0.07444087     0.05900
C244        C  0.72985349  0.81890232  0.10116615     0.04000
H245        H  0.67228278  0.80481476  0.05293952     0.09100
H246        H  0.75298870  0.81899434  0.11080093     0.08000
N247        N  0.85697946  0.06027958  0.42324241    -0.26400
N248        N  0.87444351  0.08577118  0.42494247    -0.34300
C249        C  0.88708118  0.08884305  0.45331863     0.01900
C250        C  0.87766134  0.06396553  0.47051235     0.07900
C251        C  0.85878505  0.04611362  0.45061919    -0.05200
H252        H  0.90368565  0.10669222  0.46012363     0.08600
H253        H  0.84778536  0.02408149  0.45554130     0.09800
Cu254      Cu  0.88451294  0.11313054  0.38783060     0.44200
Cu255      Cu  0.83241015  0.04620417  0.38284082     0.42000
Cu256      Cu  0.84157213  0.09805227  0.31770941     0.43900
N257        N  0.89338576  0.13591781  0.34758531    -0.33800
N258        N  0.87639035  0.13175756  0.32212484    -0.28100
C259        C  0.88793126  0.14959662  0.30009149    -0.04200
C260        C  0.91367331  0.16508997  0.31236146     0.08000
C261        C  0.91672071  0.15586328  0.34235787     0.01800
H262        H  0.87928392  0.14988432  0.27663795     0.09500
H263        H  0.93462237  0.16278921  0.35898567     0.08600
N264        N  0.81335304  0.05844555  0.31639584    -0.35300
N265        N  0.80998740  0.03942180  0.33963197    -0.27400
C266        C  0.79160020  0.01537551  0.33013077    -0.02700
C267        C  0.78300502  0.01932565  0.29950100     0.05900
C268        C  0.79752551  0.04690548  0.29170322     0.04000
H269        H  0.78565196  0.99579184  0.34418373     0.09100
H270        H  0.79811956  0.05717024  0.26936738     0.08000
C271        C  0.76492754  0.99629105  0.27887493     0.30900
C272        C  0.73378367  0.95194052  0.24417348     0.30900
C273        C  0.78126414  0.96600889  0.27476246    -0.05300
C274        C  0.73426945  0.98480078  0.29047124    -0.06100
C275        C  0.75607440  0.00589859  0.24567874    -0.06000
C276        C  0.76568294  0.94331393  0.25705434    -0.05300
C277        C  0.71835141  0.96225210  0.27289411    -0.06100
C278        C  0.74010262  0.98285922  0.22810137    -0.06000
C279        C  0.78144189  0.91640899  0.26157715    -0.31400
N280        N  0.80584009  0.92242517  0.28120682     0.15100
C281        C  0.80569925  0.95246883  0.28957909    -0.31400
H282        H  0.82128976  0.96318693  0.30657920     0.17100
C283        C  0.69172342  0.95530260  0.28703992    -0.30400
N284        N  0.69118225  0.97299599  0.31246837     0.13800
C285        C  0.71717187  0.99086143  0.31491748    -0.30400
C286        C  0.72329263  0.99757355  0.20543321    -0.30600
N287        N  0.72882899  0.02833235  0.20776624     0.14300
H288        H  0.70626491  0.98683907  0.18984756     0.17000
C289        C  0.74779194  0.03381874  0.23262269    -0.30700
H290        H  0.75235805  0.05650146  0.24229716     0.17000
H291        H  0.72300107  0.00720022  0.33304420     0.17000
H292        H  0.77433259  0.89363243  0.25344064     0.17100
H293        H  0.67427653  0.93831235  0.27976247     0.17000
N294        N  0.59705165  0.96242900  0.39613393    -0.02600
C295        C  0.58167890  0.98539574  0.40842003     0.00000
C296        C  0.55302252  0.97491876  0.41597139    -0.22900
C297        C  0.55043353  0.94432491  0.40763295    -0.23100
C298        C  0.57758347  0.93747504  0.39519675    -0.00100
H299        H  0.53521155  0.98856019  0.42451949     0.13700
H300        H  0.53030882  0.92933366  0.40872847     0.13700
N301        N  0.93321441  0.80694997  0.28827567    -0.26400
N302        N  0.95279470  0.80300997  0.31166443    -0.34300
C303        C  0.97517737  0.78521949  0.30304712     0.01900
C304        C  0.96937381  0.77689218  0.27290438     0.07900
C305        C  0.94274341  0.79156950  0.26414100    -0.05200
H306        H  0.99439164  0.77875827  0.31773683     0.08600
H307        H  0.93146864  0.79173285  0.24172874     0.09800
Cu308      Cu  0.94843228  0.82089351  0.35484978     0.44200
Cu309      Cu  0.89498006  0.83399757  0.29048513     0.42000
Cu310      Cu  0.88287648  0.86466818  0.36643655     0.43900
N311        N  0.93759960  0.83607811  0.39749542    -0.33800
N312        N  0.91252044  0.85085502  0.40221995    -0.28100
C313        C  0.91106676  0.85578813  0.43235019    -0.04200
C314        C  0.93668389  0.84387097  0.44711703     0.08000
C315        C  0.95306348  0.83177599  0.42428051     0.01800
H316        H  0.89315845  0.86789722  0.44262846     0.09500
H317        H  0.97442722  0.82023616  0.42698773     0.08600
N318        N  0.85804805  0.87712552  0.32671240    -0.35300
N319        N  0.86139267  0.86517484  0.29943814    -0.27400
C320        C  0.84201663  0.87860607  0.27905252    -0.02700
C321        C  0.82617806  0.90020302  0.29428832     0.05900
C322        C  0.83700753  0.89891272  0.32429157     0.04000
H323        H  0.84080669  0.87419924  0.25483351     0.09100
H324        H  0.83047164  0.91308207  0.34288080     0.08000
C325        C  0.02779936  0.72465316  0.22086540     0.30900
C326        C  0.98966004  0.75799790  0.25386895     0.30900
C327        C  0.99477771  0.72616443  0.20774246    -0.05300
C328        C  0.02346500  0.71332895  0.25347334    -0.06100
C329        C  0.03738628  0.75903173  0.22577483    -0.06000
C330        C  0.97524780  0.74364413  0.22454545    -0.05300
C331        C  0.00393371  0.73029793  0.27023478    -0.06100
C332        C  0.01740727  0.77601368  0.24264067    -0.06000
C333        C  0.94603563  0.73237175  0.21764423    -0.31400
N334        N  0.94707389  0.70925377  0.19732747     0.15100
C335        C  0.97648855  0.70456873  0.19179840    -0.31400
H336        H  0.98409912  0.68539254  0.17887426     0.17100
C337        C  0.99873518  0.71401527  0.29645609    -0.30400
N338        N  0.01463702  0.68782607  0.29613035     0.13800
C339        C  0.02958025  0.68704034  0.26988697    -0.30400
C340        C  0.03424514  0.79979982  0.25649796    -0.30600
N341        N  0.06337193  0.79848091  0.24860994     0.14300
H342        H  0.02661898  0.81481383  0.27396411     0.17000
C343        C  0.06590208  0.77333969  0.23095813    -0.30700
H344        H  0.08748757  0.76387378  0.22601088     0.17000
H345        H  0.04202063  0.66763912  0.26234596     0.17000
H346        H  0.92579972  0.73801938  0.22910286     0.17100
H347        H  0.98240129  0.71925525  0.31306696     0.17000
N348        N  0.99830698  0.58364120  0.37264882    -0.02600
C349        C  0.97247219  0.56758089  0.37913932     0.00000
C350        C  0.97953946  0.53907591  0.39117985    -0.22900
C351        C  0.01081522  0.53761707  0.39201444    -0.23100
C352        C  0.02170125  0.56528685  0.38051420    -0.00100
H353        H  0.96364024  0.52090887  0.39767509     0.13700
H354        H  0.02407258  0.51812139  0.39921157     0.13700
N355        N  0.80792743  0.65673491  0.07499655    -0.26400
N356        N  0.81248783  0.68074930  0.09330411    -0.34300
C357        C  0.80003378  0.70565864  0.08015582     0.01900
C358        C  0.78622798  0.69697501  0.05240233     0.07900
C359        C  0.79225777  0.66585976  0.04974736    -0.05200
H360        H  0.80284811  0.72878641  0.08922002     0.08600
H361        H  0.78724125  0.65136147  0.03002706     0.09800
Cu362      Cu  0.84009426  0.68043856  0.13252811     0.44200
Cu363      Cu  0.82615674  0.61344679  0.08342542     0.42000
Cu364      Cu  0.87734081  0.61007559  0.15006591     0.43900
N365        N  0.87788521  0.67807511  0.16190268    -0.33800
N366        N  0.89279882  0.65247346  0.16688935    -0.28100
C367        C  0.91980247  0.65953818  0.18141150    -0.04200
C368        C  0.92129505  0.69098321  0.18616189     0.08000
C369        C  0.89452485  0.70213901  0.17371046     0.01800
H370        H  0.93732408  0.64327420  0.18693969     0.09500
H371        H  0.88875018  0.72606240  0.17107248     0.08600
N372        N  0.86330808  0.57182779  0.12461114    -0.35300
N373        N  0.84651723  0.57306986  0.09885773    -0.27400
C374        C  0.84617379  0.54518391  0.08533266    -0.02700
C375        C  0.86291587  0.52554284  0.10395768     0.05900
C376        C  0.87334907  0.54316749  0.12860280     0.04000
H377        H  0.83527763  0.53983651  0.06328367     0.09100
H378        H  0.88908535  0.53635183  0.14689291     0.08000
N379        N  0.30726061  0.04166576  0.81282585    -0.26400
N380        N  0.33365405  0.03039363  0.80655087    -0.34300
C381        C  0.32908727  0.00782126  0.78580222     0.01900
C382        C  0.29820313  0.00481380  0.77835353     0.07900
C383        C  0.28506284  0.02628326  0.79649210    -0.05200
H384        H  0.34693230  0.99444295  0.77697545     0.08600
H385        H  0.26111681  0.03012266  0.79842302     0.09800
Cu386      Cu  0.37375643  0.04440071  0.82874868     0.44200
Cu387      Cu  0.30269156  0.07723573  0.84350135     0.42000
Cu388      Cu  0.36827188  0.09455638  0.89441077     0.43900
N389        N  0.40909797  0.05456323  0.85955561    -0.33800
N390        N  0.40746037  0.07197291  0.88400546    -0.28100
C391        C  0.43450612  0.07188530  0.89983852    -0.04200
C392        C  0.45361892  0.05361140  0.88435707     0.08000
C393        C  0.43688271  0.04300544  0.85908002     0.01800
H394        H  0.43961444  0.08375571  0.92115165     0.09500
H395        H  0.44424627  0.02778904  0.84168519     0.08600
N396        N  0.32650645  0.11537742  0.89724695    -0.35300
N397        N  0.30305325  0.11019477  0.87760641    -0.27400
C398        C  0.27951926  0.12690193  0.88562511    -0.02700
C399        C  0.28859448  0.14297925  0.91175128     0.05900
C400        C  0.31833176  0.13503411  0.91873692     0.04000
H401        H  0.25699118  0.12577176  0.87448859     0.09100
H402        H  0.33265939  0.14232841  0.93831078     0.08000
N403        N  0.12012789  0.64636229  0.81229883    -0.26400
N404        N  0.13262986  0.67360217  0.82013954    -0.34300
C405        C  0.12093738  0.69514130  0.80108329     0.01900
C406        C  0.09986715  0.68109569  0.78022182     0.07900
C407        C  0.10015474  0.65006349  0.78832662    -0.05200
H408        H  0.12475759  0.71972764  0.80430487     0.08600
H409        H  0.08447629  0.63200862  0.77964018     0.09800
Cu410      Cu  0.16044513  0.68098253  0.86037506     0.44200
Cu411      Cu  0.12617761  0.60600715  0.83814342     0.42000
Cu412      Cu  0.16465009  0.61533500  0.91268867     0.43900
N413        N  0.18473468  0.68260611  0.90318881    -0.33800
N414        N  0.18552279  0.65895840  0.92227377    -0.28100
C415        C  0.20198293  0.66755163  0.94779302    -0.04200
C416        C  0.21273478  0.69791167  0.94479112     0.08000
C417        C  0.20094567  0.70668423  0.91619249     0.01800
H418        H  0.20588180  0.65273501  0.96731112     0.09500
H419        H  0.20344628  0.72920745  0.90583301     0.08600
N420        N  0.14494250  0.57303035  0.89678467    -0.35300
N421        N  0.13184747  0.56947645  0.86917455    -0.27400
C422        C  0.12225024  0.53971219  0.86556597    -0.02700
C423        C  0.12944971  0.52371855  0.89213467     0.05900
C424        C  0.14362706  0.54564484  0.91148790     0.04000
H425        H  0.11030972  0.53047934  0.84528941     0.09100
H426        H  0.15237346  0.54193427  0.93457531     0.08000
N427        N  0.70427093  0.13773380  0.88857488    -0.26400
N428        N  0.67700296  0.13985210  0.89941944    -0.34300
C429        C  0.67870133  0.15863230  0.92366014     0.01900
C430        C  0.70845619  0.16918129  0.92752595     0.07900
C431        C  0.72422969  0.15578566  0.90509676    -0.05200
H432        H  0.66008085  0.16312396  0.93794268     0.08600
H433        H  0.74860266  0.15685158  0.90269965     0.09800
Cu434      Cu  0.64032486  0.11359401  0.88355155     0.44200
Cu435      Cu  0.71395072  0.10380026  0.85842203     0.42000
Cu436      Cu  0.65595983  0.04000861  0.85237421     0.43900
N437        N  0.60735392  0.08053505  0.87356471    -0.33800
N438        N  0.61259446  0.05242799  0.86413248    -0.28100
C439        C  0.58659889  0.03511560  0.86547815    -0.04200
C440        C  0.56427481  0.05367510  0.87586763     0.08000
C441        C  0.57824981  0.08221492  0.88059214     0.01800
H442        H  0.58436350  0.01075016  0.86025145     0.09500
H443        H  0.56872206  0.10213835  0.89070828     0.08600
N444        N  0.70174686  0.03668191  0.84243052    -0.35300
N445        N  0.72193207  0.06016132  0.84322312    -0.27400
C446        C  0.74928838  0.05018914  0.83626657    -0.02700
C447        C  0.74623012  0.01892311  0.83120872     0.05900
C448        C  0.71591391  0.01093944  0.83511902     0.04000
H449        H  0.76997152  0.06445555  0.83606338     0.09100
H450        H  0.70493519  0.98827205  0.83286036     0.08000
C451        C  0.22610176  0.22645336  0.95278820     0.30900
C452        C  0.25245351  0.19766027  0.00225029     0.30900
C453        C  0.23697029  0.19374220  0.94689371    -0.05300
C454        C  0.25497594  0.24274611  0.96737616    -0.06100
C455        C  0.20595342  0.22186276  0.97999558    -0.06000
C456        C  0.25070611  0.17915013  0.97240282    -0.05300
C457        C  0.26818465  0.22808290  0.99269136    -0.06100
C458        C  0.21926263  0.20699430  0.00562754    -0.06000
C459        C  0.27086087  0.15873930  0.96150976    -0.31400
N460        N  0.26936253  0.15958139  0.93079499     0.15100
C461        C  0.24939221  0.18122230  0.92159568    -0.31400
H462        H  0.24662322  0.18966788  0.89850401     0.17100
C463        C  0.29277048  0.24627310  0.00327442    -0.30400
N464        N  0.29504350  0.27141691  0.98500744     0.13800
C465        C  0.27215524  0.26946949  0.96303219    -0.30400
C466        C  0.20519787  0.21846833  0.03050797    -0.30600
N467        N  0.18389549  0.23862885  0.02087056     0.14300
H468        H  0.21247276  0.21526556  0.05411565     0.17000
C469        C  0.18472909  0.24136024  0.99041090    -0.30700
H470        H  0.17284691  0.25858124  0.97703319     0.17000
H471        H  0.26819530  0.28667402  0.94559138     0.17000
H472        H  0.28735859  0.14598055  0.97505486     0.17100
H473        H  0.30697520  0.24235091  0.02360162     0.17000
N474        N  0.37070850  0.37836893  0.01136317    -0.02600
C475        C  0.37102187  0.39524555  0.03718957     0.00000
C476        C  0.38726125  0.42276199  0.03379287    -0.22900
C477        C  0.39690596  0.42300972  0.00452225    -0.23100
C478        C  0.38663880  0.39537311  0.99134725    -0.00100
H479        H  0.39216093  0.44035705  0.05091976     0.13700
H480        H  0.41019356  0.44124318  0.99407016     0.13700
N481        N  0.07385470  0.27463355  0.83499755    -0.26400
N482        N  0.08916683  0.24908029  0.83895264    -0.34300
C483        C  0.07335472  0.22552271  0.82470253     0.01900
C484        C  0.04672002  0.23648842  0.81087045     0.07900
C485        C  0.04778652  0.26770938  0.81845267    -0.05200
H486        H  0.08050657  0.20193160  0.82491858     0.08600
H487        H  0.03077689  0.28428936  0.81218157     0.09800
Cu488      Cu  0.13077521  0.24714144  0.86453817     0.44200
Cu489      Cu  0.08965646  0.31842847  0.85156199     0.42000
Cu490      Cu  0.16402311  0.32138347  0.89056750     0.43900
N491        N  0.17074575  0.25176119  0.89275724    -0.33800
N492        N  0.18251757  0.27876403  0.90222352    -0.28100
C493        C  0.20562195  0.27393582  0.92279136    -0.04200
C494        C  0.20954947  0.24238022  0.92609643     0.08000
C495        C  0.18639599  0.22921105  0.90700200     0.01800
H496        H  0.21678583  0.29211127  0.93643134     0.09500
H497        H  0.17993984  0.20493218  0.90546228     0.08600
N498        N  0.13929456  0.36102293  0.88103186    -0.35300
N499        N  0.11138198  0.35981289  0.86819644    -0.27400
C500        C  0.10003192  0.38831772  0.86905479    -0.02700
C501        C  0.12198573  0.40863405  0.88238881     0.05900
C502        C  0.14655536  0.39037621  0.88971093     0.04000
H503        H  0.07704323  0.39373261  0.86149969     0.09100
H504        H  0.16729642  0.39745639  0.90248517     0.08000
C505        C  0.26249759  0.75178576  0.01308933     0.30900
C506        C  0.23100043  0.71748476  0.96890354     0.30900
C507        C  0.26422129  0.76420588  0.98044983    -0.05300
C508        C  0.27249792  0.71827392  0.00968607    -0.06100
C509        C  0.22787336  0.74735126  0.01700670    -0.06000
C510        C  0.24820439  0.74648096  0.95753884    -0.05300
C511        C  0.25614086  0.70088158  0.98720064    -0.06100
C512        C  0.21179677  0.72982457  0.99400791    -0.06000
C513        C  0.26490868  0.74978534  0.93180750    -0.31400
N514        N  0.28936000  0.76905186  0.93788133     0.15100
C515        C  0.28929968  0.77755230  0.96730702    -0.31400
H516        H  0.30803382  0.78997130  0.97928913     0.17100
C517        C  0.27165945  0.67451942  0.98278342    -0.30400
N518        N  0.29689231  0.67511789  0.00180612     0.13800
C519        C  0.29797265  0.70191052  0.01795394    -0.30400
C520        C  0.18775194  0.71495335  0.00744382    -0.30600
N521        N  0.18801892  0.72268629  0.03715286     0.14300
H522        H  0.17341229  0.69661704  0.99715803     0.17000
C523        C  0.21257599  0.74174761  0.04341764    -0.30700
H524        H  0.22130828  0.74732026  0.06626560     0.17000
H525        H  0.31697808  0.70982266  0.03287325     0.17000
H526        H  0.26165747  0.73599177  0.91140068     0.17100
H527        H  0.26668286  0.65767136  0.96496208     0.17000
N528        N  0.39311118  0.59238511  0.99161963    -0.02600
C529        C  0.40869489  0.58428833  0.96739325     0.00000
C530        C  0.43008117  0.56293739  0.97612896    -0.22900
C531        C  0.42708395  0.55752967  0.00683198    -0.23100
C532        C  0.40412334  0.57593474  0.01559866    -0.00100
H533        H  0.44579915  0.55214188  0.96171132     0.13700
H534        H  0.44078467  0.54264755  0.02127685     0.13700
N535        N  0.43912973  0.83915614  0.88264035    -0.26400
N536        N  0.44268268  0.84939146  0.85469074    -0.34300
C537        C  0.47137375  0.86037631  0.85231691     0.01900
C538        C  0.48656162  0.85750722  0.88025993     0.07900
C539        C  0.46552697  0.84413058  0.89911200    -0.05200
H540        H  0.47998125  0.87122136  0.83219353     0.08600
H541        H  0.46910540  0.83856910  0.92296963     0.09800
Cu542      Cu  0.40744404  0.85273848  0.82252158     0.44200
Cu543      Cu  0.39822025  0.81861407  0.89595948     0.42000
Cu544      Cu  0.34298607  0.80285970  0.83249952     0.43900
N545        N  0.36609094  0.85856019  0.79974637    -0.33800
N546        N  0.34285043  0.83857116  0.80155922    -0.28100
C547        C  0.31776468  0.85085876  0.78858184    -0.04200
C548        C  0.32571698  0.88012066  0.77879569     0.08000
C549        C  0.35638735  0.88450196  0.78626257     0.01800
H550        H  0.29491400  0.84103722  0.78994157     0.09500
H551        H  0.36998004  0.90566429  0.78442263     0.08600
N552        N  0.33711571  0.78813582  0.87643879    -0.35300
N553        N  0.35592237  0.79578301  0.89991555    -0.27400
C554        C  0.34214818  0.78864777  0.92575063    -0.02700
C555        C  0.31347530  0.77589378  0.91789274     0.05900
C556        C  0.31105033  0.77578424  0.88656914     0.04000
H557        H  0.35178011  0.79367795  0.94836123     0.09100
H558        H  0.29094773  0.76978682  0.87224848     0.08000
C559        C  0.28248760  0.98260746  0.75569578     0.30900
C560        C  0.25415142  0.94229640  0.71582222     0.30900
C561        C  0.24872503  0.98852863  0.74803931    -0.05300
C562        C  0.29559751  0.98175169  0.72412730    -0.06100
C563        C  0.28267814  0.94870221  0.76568703    -0.06000
C564        C  0.23391686  0.96742995  0.72727639    -0.05300
C565        C  0.28116696  0.96091971  0.70374557    -0.06100
C566        C  0.26775962  0.92777721  0.74507133    -0.06000
C567        C  0.21330874  0.98412132  0.70987420    -0.31400
N568        N  0.21493496  0.01378744  0.71896008     0.15100
C569        C  0.23640803  0.01684831  0.74166811    -0.31400
H570        H  0.24628841  0.03903180  0.74879169     0.17100
C571        C  0.29808957  0.96031523  0.67839405    -0.30400
N572        N  0.32234963  0.98028450  0.68293889     0.13800
C573        C  0.32102964  0.99348843  0.71077266    -0.30400
C574        C  0.28236693  0.90023791  0.74857557    -0.30600
N575        N  0.30475091  0.90340641  0.77046363     0.14300
H576        H  0.27977260  0.88049359  0.73356041     0.17000
C577        C  0.30586484  0.93286585  0.78043564    -0.30700
H578        H  0.32393994  0.94277763  0.79532595     0.17000
H579        H  0.33856696  0.00867989  0.72128420     0.17000
H580        H  0.20114428  0.97619021  0.68922063     0.17100
H581        H  0.29463920  0.94455703  0.65940373     0.17000
N582        N  0.42964944  0.98539083  0.61690412    -0.02600
C583        C  0.45059267  0.96364901  0.61345030     0.00000
C584        C  0.47631260  0.97697215  0.60139288    -0.22900
C585        C  0.47074838  0.00794821  0.59732152    -0.23100
C586        C  0.44168359  0.01243440  0.60668024    -0.00100
H587        H  0.49682762  0.96550612  0.59611913     0.13700
H588        H  0.48655807  0.02545774  0.58929708     0.13700
N589        N  0.13348866  0.86784055  0.57393718    -0.26400
N590        N  0.15380534  0.89109733  0.57656251    -0.34300
C591        C  0.15235395  0.90839701  0.55120604     0.01900
C592        C  0.13039680  0.89548645  0.53117596     0.07900
C593        C  0.11877436  0.86978653  0.54626732    -0.05200
H594        H  0.16666210  0.92872465  0.54743441     0.08600
H595        H  0.10054002  0.85414046  0.53812004     0.09800
Cu596      Cu  0.18376694  0.89889681  0.61360714     0.44200
Cu597      Cu  0.12709244  0.83502202  0.60906553     0.42000
Cu598      Cu  0.18530332  0.83976962  0.67019243     0.43900
N599        N  0.21066095  0.90218051  0.65332895    -0.33800
N600        N  0.21069652  0.88039155  0.67427726    -0.28100
C601        C  0.22671161  0.89062578  0.69919002    -0.04200
C602        C  0.23800785  0.92016185  0.69350097     0.08000
C603        C  0.22729732  0.92672867  0.66413033     0.01800
H604        H  0.22801743  0.87817200  0.72048085     0.09500
H605        H  0.23004754  0.94836781  0.65212633     0.08600
N606        N  0.15042258  0.80694418  0.66905801    -0.35300
N607        N  0.12769618  0.80620372  0.64809716    -0.27400
C608        C  0.10569127  0.78648799  0.65761704    -0.02700
C609        C  0.11555660  0.77409917  0.68547640     0.05900
C610        C  0.14394571  0.78759009  0.69198601     0.04000
H611        H  0.08362540  0.78266193  0.64596668     0.09100
H612        H  0.15753831  0.78587421  0.71308306     0.08000
N613        N  0.64423580  0.86810592  0.86641807    -0.26400
N614        N  0.64092584  0.84577381  0.88653226    -0.34300
C615        C  0.61295699  0.84613750  0.89716084     0.01900
C616        C  0.59789344  0.86991095  0.88310376     0.07900
C617        C  0.61822762  0.88355816  0.86377706    -0.05200
H618        H  0.60436558  0.83043658  0.91410239     0.08600
H619        H  0.61470879  0.90349014  0.84942923     0.09800
Cu620      Cu  0.67529238  0.81811549  0.90115310     0.44200
Cu621      Cu  0.68474796  0.87583070  0.84493551     0.42000
Cu622      Cu  0.75165606  0.83703536  0.87753541     0.43900
N623        N  0.71318125  0.79926640  0.92119585    -0.33800
N624        N  0.74133429  0.80614009  0.91366085    -0.28100
C625        C  0.76035753  0.79085238  0.93292656    -0.04200
C626        C  0.74320275  0.77336975  0.95312919     0.08000
C627        C  0.71344726  0.77986151  0.94505410     0.01800
H628        H  0.78489439  0.79311132  0.93278497     0.09500
H629        H  0.69332664  0.77138294  0.95599597     0.08600
N630        N  0.75272156  0.86818595  0.83999464    -0.35300
N631        N  0.72789173  0.88078042  0.82802954    -0.27400
C632        C  0.73552573  0.90049220  0.80584721    -0.02700
C633        C  0.76677799  0.90078139  0.80297657     0.05900
C634        C  0.77690995  0.88028841  0.82558781     0.04000
H635        H  0.71970798  0.91590978  0.79469610     0.09100
H636        H  0.80039788  0.87611369  0.83233732     0.08000
C637        C  0.77457970  0.71778075  0.02705205     0.30900
C638        C  0.75406788  0.75295293  0.97937191     0.30900
C639        C  0.79831448  0.72634065  0.00384821    -0.05300
C640        C  0.74838886  0.70342521  0.00702614    -0.06100
C641        C  0.76217575  0.74913517  0.03564236    -0.06000
C642        C  0.78782144  0.74462444  0.97916013    -0.05300
C643        C  0.73775118  0.72099761  0.98252190    -0.06100
C644        C  0.75141819  0.76695025  0.01122300    -0.06000
C645        C  0.80413445  0.73621402  0.95462899    -0.31400
N646        N  0.82408540  0.71472030  0.96350025     0.15100
C647        C  0.82029807  0.70798703  0.99300570    -0.31400
H648        H  0.83019066  0.68850943  0.00472109     0.17100
C649        C  0.71320700  0.70434446  0.96900334    -0.30400
N650        N  0.70934064  0.67734949  0.98456035     0.13800
C651        C  0.73052111  0.67692720  0.00797367    -0.30400
C652        C  0.73437690  0.78972175  0.02314642    -0.30600
N653        N  0.73547263  0.78694137  0.05393551     0.14300
H654        H  0.72079727  0.80604844  0.01029749     0.17000
C655        C  0.75204228  0.76207113  0.06179614    -0.30700
H656        H  0.75414047  0.75260866  0.08452531     0.17000
H657        H  0.73157661  0.65945255  0.02550155     0.17000
H658        H  0.79864209  0.74160344  0.93101774     0.17100
H659        H  0.69866753  0.71165331  0.94993439     0.17000
N660        N  0.60945903  0.59024185  0.98005008    -0.02600
C661        C  0.59524301  0.57679453  0.00333894     0.00000
C662        C  0.57061438  0.55862241  0.99235702    -0.22900
C663        C  0.57022967  0.56061396  0.96099089    -0.23100
C664        C  0.59447207  0.58013455  0.95428659    -0.00100
H665        H  0.55477874  0.54533724  0.00564481     0.13700
H666        H  0.55451899  0.54862508  0.94495690     0.13700
N667        N  0.87498420  0.68480808  0.91102402    -0.26400
N668        N  0.86500219  0.65905726  0.92390060    -0.34300
C669        C  0.84442582  0.66577876  0.94411671     0.01900
C670        C  0.84108603  0.69721417  0.94337422     0.07900
C671        C  0.86051623  0.70877108  0.92218411    -0.05200
H672        H  0.83365987  0.64921022  0.95892391     0.08600
H673        H  0.86542862  0.73276724  0.91697621     0.09800
Cu674      Cu  0.88255621  0.61660612  0.91658342     0.44200
Cu675      Cu  0.91212302  0.68627564  0.88411798     0.42000
Cu676      Cu  0.95873292  0.61815543  0.89037914     0.43900
N677        N  0.90780629  0.57790904  0.91356205    -0.33800
N678        N  0.93653511  0.57857426  0.90608757    -0.28100
C679        C  0.94714507  0.54994803  0.90888569    -0.04200
C680        C  0.92369944  0.53049623  0.91798917     0.08000
C681        C  0.89912549  0.54891721  0.92070886     0.01800
H682        H  0.96997376  0.54366259  0.90406932     0.09500
H683        H  0.87686134  0.54200733  0.92822257     0.08600
N684        N  0.97155754  0.65877511  0.86853313    -0.35300
N685        N  0.95393371  0.68279738  0.86522790    -0.27400
C686        C  0.96727244  0.70388772  0.84737782    -0.02700
C687        C  0.99467052  0.69266767  0.83933105     0.05900
C688        C  0.99681836  0.66405527  0.85301342     0.04000
H689        H  0.95735353  0.72533992  0.84019587     0.09100
H690        H  0.01438561  0.64757526  0.85046606     0.08000
C691        C  0.02520579  0.72786286  0.73882510     0.30900
C692        C  0.07368415  0.69726570  0.76337005     0.30900
C693        C  0.02774470  0.72758835  0.77367310    -0.05300
C694        C  0.02546202  0.69337276  0.73131055    -0.06100
C695        C  0.05670509  0.73985170  0.73004010    -0.06000
C696        C  0.05268065  0.71143192  0.78633411    -0.05300
C697        C  0.05083741  0.67746283  0.74278602    -0.06100
C698        C  0.08166139  0.72469323  0.74253933    -0.06000
C699        C  0.04311036  0.69817289  0.81302207    -0.31400
N700        N  0.01420316  0.70588888  0.81731727     0.15100
C701        C  0.00450833  0.72302193  0.79336132    -0.31400
H702        H  0.98072984  0.72725085  0.78815456     0.17100
C703        C  0.05422288  0.65373763  0.72203076    -0.30400
N704        N  0.03057710  0.65361072  0.70073461     0.13800
C705        C  0.01300147  0.67753398  0.70668894    -0.30400
C706        C  0.10677295  0.73600015  0.72758078    -0.30600
N707        N  0.09727867  0.75726497  0.70656898     0.14300
H708        H  0.12977460  0.72807401  0.73046451     0.17000
C709        C  0.06683095  0.75967557  0.70802461    -0.30700
H710        H  0.05294602  0.77418053  0.69335537     0.17000
H711        H  0.99455479  0.68525274  0.69163116     0.17000
H712        H  0.05501731  0.68084446  0.82618326     0.17100
H713        H  0.07423430  0.64020878  0.72046613     0.17000
N714        N  0.01307997  0.59524924  0.58525713    -0.02600
C715        C  0.98711908  0.58554677  0.56967464     0.00000
C716        C  0.99321780  0.57998664  0.53960625    -0.22900
C717        C  0.02367618  0.58713486  0.53657905    -0.23100
C718        C  0.03514577  0.59655033  0.56490161    -0.00100
H719        H  0.97706303  0.57257194  0.52147864     0.13700
H720        H  0.03592677  0.58606707  0.51594204     0.13700
N721        N  0.88894937  0.85952200  0.69085811    -0.26400
N722        N  0.89653114  0.84326505  0.71545988    -0.34300
C723        C  0.88295040  0.85459914  0.73956169     0.01900
C724        C  0.86641449  0.87942825  0.72975004     0.07900
C725        C  0.87087661  0.88229693  0.69892740    -0.05200
H726        H  0.88619175  0.84637878  0.76267501     0.08600
H727        H  0.86185248  0.89966442  0.68362055     0.09800
Cu728      Cu  0.92795227  0.80879154  0.71655823     0.44200
Cu729      Cu  0.90356553  0.84953636  0.64728536     0.42000
Cu730      Cu  0.95579418  0.78640020  0.64503472     0.43900
N731        N  0.96200474  0.77745939  0.71293749    -0.33800
N732        N  0.97151110  0.76835369  0.68658031    -0.28100
C733        C  0.99419874  0.74877759  0.69182504    -0.04200
C734        C  0.99956820  0.74550864  0.72305149     0.08000
C735        C  0.97875429  0.76441565  0.73561828     0.01800
H736        H  0.00696284  0.73878607  0.67418924     0.09500
H737        H  0.97677693  0.76980224  0.75934647     0.08600
N738        N  0.94037225  0.81049948  0.60660474    -0.35300
N739        N  0.92116862  0.83327997  0.60698449    -0.27400
C740        C  0.91779274  0.84496306  0.57857111    -0.02700
C741        C  0.93568727  0.82876846  0.55953945     0.05900
C742        C  0.94994037  0.80746334  0.57825346     0.04000
H743        H  0.90502603  0.86516176  0.57264376     0.09100
H744        H  0.96733583  0.79199553  0.57205121     0.08000
C745        C  0.81769012  0.97474433  0.76388714     0.30900
C746        C  0.78522484  0.92666944  0.78800076     0.30900
C747        C  0.80674462  0.98051535  0.79597842    -0.05300
C748        C  0.78784004  0.96513661  0.74636292    -0.06100
C749        C  0.83420264  0.94410941  0.76677549    -0.06000
C750        C  0.79009078  0.95534461  0.80850337    -0.05300
C751        C  0.77117106  0.94049481  0.75828828    -0.06100
C752        C  0.81764239  0.91929504  0.77940730    -0.06000
C753        C  0.76797292  0.96791503  0.82530216    -0.31400
N754        N  0.76973914  0.99887794  0.82322878     0.15100
C755        C  0.79300040  0.00680904  0.80558811    -0.31400
H756        H  0.79607908  0.02956011  0.79582219     0.17100
C757        C  0.74567421  0.93554167  0.73883418    -0.30400
N758        N  0.74658263  0.95671135  0.71594970     0.13800
C759        C  0.77223088  0.97482382  0.72054075    -0.30400
C760        C  0.82866729  0.89264963  0.76735452    -0.30600
N761        N  0.85121466  0.90030959  0.74859757     0.14300
H762        H  0.81856027  0.86964050  0.76931372     0.17000
C763        C  0.85419471  0.93138700  0.74749851    -0.30700
H764        H  0.86811062  0.94387658  0.73171331     0.17000
H765        H  0.77918997  0.99351644  0.70579560     0.17000
H766        H  0.74890602  0.95520768  0.83441581     0.17100
H767        H  0.72848987  0.91725507  0.74048253     0.17000
N768        N  0.67009050  0.96984297  0.60846972    -0.02600
C769        C  0.66548259  0.94980606  0.58491258     0.00000
C770        C  0.64686180  0.96261363  0.56236315    -0.22900
C771        C  0.63970393  0.99141818  0.57262807    -0.23100
C772        C  0.65418297  0.99520346  0.60108064    -0.00100
H773        H  0.63895181  0.95203374  0.54101728     0.13700
H774        H  0.62635482  0.00821433  0.56019459     0.13700
N775        N  0.86472881  0.04339417  0.73972352    -0.26400
N776        N  0.86134535  0.02708247  0.71437906    -0.34300
C777        C  0.84449444  0.00127031  0.71926529     0.01900
C778        C  0.83637278  0.00070972  0.74920919     0.07900
C779        C  0.84983037  0.02791436  0.76161160    -0.05200
H780        H  0.83837665  0.98405356  0.70205525     0.08600
H781        H  0.84927112  0.03563748  0.78489665     0.09800
Cu782      Cu  0.87869874  0.04048551  0.67347720     0.44200
Cu783      Cu  0.89019032  0.08607939  0.74115499     0.42000
Cu784      Cu  0.91542681  0.11526059  0.66638701     0.43900
N785        N  0.89198534  0.05800957  0.63234789    -0.33800
N786        N  0.90423015  0.08598990  0.62886729    -0.28100
C787        C  0.90861228  0.09041334  0.59895979    -0.04200
C788        C  0.89889474  0.06381271  0.58310388     0.08000
C789        C  0.88872405  0.04383083  0.60520005     0.01800
H790        H  0.91901380  0.11095847  0.58977626     0.09500
H791        H  0.87935022  0.02061832  0.60175062     0.08600
N792        N  0.92609510  0.13757223  0.70843722    -0.35300
N793        N  0.91736892  0.12705547  0.73504012    -0.27400
C794        C  0.93080311  0.14515784  0.75720130    -0.02700
C795        C  0.94846248  0.16867865  0.74436497     0.05900
C796        C  0.94507443  0.16254273  0.71330923     0.04000
H797        H  0.92952702  0.14032843  0.78122823     0.09100
H798        H  0.95745580  0.17405315  0.69568310     0.08000
C799        C  0.97406125  0.18806325  0.76098517     0.30900
C800        C  0.02114814  0.21849997  0.79267507     0.30900
C801        C  0.00431507  0.17118073  0.76360374    -0.05300
C802        C  0.98413052  0.21971199  0.74768542    -0.06100
C803        C  0.96830740  0.19601948  0.79430388    -0.06000
C804        C  0.02870578  0.18686230  0.78012025    -0.05300
C805        C  0.00837249  0.23461772  0.76406702    -0.06100
C806        C  0.99268566  0.21163443  0.81039810    -0.06000
C807        C  0.05489162  0.17957047  0.76611731    -0.31400
N808        N  0.04771488  0.16039908  0.74255937     0.15100
C809        C  0.01724799  0.15542060  0.74061167    -0.31400
H810        H  0.00492728  0.14438755  0.72146600     0.17100
C811        C  0.01529400  0.26148807  0.74948538    -0.30400
N812        N  0.99568064  0.26450805  0.72498927     0.13800
C813        C  0.97648456  0.23899074  0.72337688    -0.30400
C814        C  0.98027303  0.22955286  0.83192630    -0.30600
N815        N  0.94968639  0.22532945  0.83013773     0.14300
H816        H  0.99243079  0.24724536  0.84551100     0.17000
C817        C  0.94202139  0.20554510  0.80700700    -0.30700
H818        H  0.91905001  0.20172170  0.79738162     0.17000
H819        H  0.95794400  0.23520692  0.70654855     0.17000
H820        H  0.07691285  0.19132894  0.76972788     0.17100
H821        H  0.03330859  0.27808570  0.75634162     0.17000
N822        N  0.00803585  0.37627652  0.65821262    -0.02600
C823        C  0.03450743  0.39114634  0.65125208     0.00000
C824        C  0.02866650  0.42107926  0.64221642    -0.22900
C825        C  0.99785458  0.42480275  0.64407413    -0.23100
C826        C  0.98585195  0.39704372  0.65413713    -0.00100
H827        H  0.04528200  0.43879818  0.63626472     0.13700
H828        H  0.98570901  0.44567929  0.63937858     0.13700
N829        N  0.89515584  0.36906529  0.90416068    -0.26400
N830        N  0.87065382  0.37478255  0.91908500    -0.34300
C831        C  0.87193096  0.40484340  0.92714166     0.01900
C832        C  0.89858741  0.41826472  0.91686134     0.07900
C833        C  0.91274043  0.39488364  0.90266174    -0.05200
H834        H  0.85586662  0.41553366  0.94123429     0.08600
H835        H  0.93487429  0.39621516  0.89300790     0.09800
Cu836      Cu  0.83972848  0.33962566  0.93124651     0.44200
Cu837      Cu  0.90547585  0.32643444  0.88779057     0.42000
Cu838      Cu  0.85433516  0.26333783  0.89825446     0.43900
N839        N  0.81781376  0.29799760  0.94323034    -0.33800
N840        N  0.82358974  0.27094495  0.93135871    -0.28100
C841        C  0.80830705  0.24860842  0.94599319    -0.04200
C842        C  0.79160000  0.26189896  0.96790419     0.08000
C843        C  0.79834482  0.29333862  0.96563989     0.01800
H844        H  0.81007879  0.22420017  0.94172329     0.09500
H845        H  0.79115929  0.31134533  0.98030557     0.08600
N846        N  0.89164726  0.26011920  0.87174454    -0.35300
N847        N  0.91141228  0.28357614  0.86938840    -0.27400
C848        C  0.93487564  0.27474945  0.85361784    -0.02700
C849        C  0.92930215  0.24433635  0.84532634     0.05900
C850        C  0.90173493  0.23555382  0.85702698     0.04000
H851        H  0.95450261  0.28933943  0.84875315     0.09100
H852        H  0.89062747  0.21288430  0.85615872     0.08000
C853        C  0.74334736  0.20993267  0.03251140     0.30900
C854        C  0.77369550  0.24436553  0.99130731     0.30900
C855        C  0.73575102  0.20240313  0.99883856    -0.05300
C856        C  0.73856367  0.24482571  0.03388798    -0.06100
C857        C  0.77838866  0.20851989  0.03558016    -0.06000
C858        C  0.75140001  0.22003827  0.97809125    -0.05300
C859        C  0.75386615  0.26275410  0.01217679    -0.06100
C860        C  0.79381922  0.22568803  0.01342679    -0.06000
C861        C  0.74259192  0.20992481  0.94951065    -0.31400
N862        N  0.72153293  0.18683965  0.95231598     0.15100
C863        C  0.71687869  0.18197583  0.98221814    -0.31400
H864        H  0.70168405  0.16433842  0.99105596     0.17100
C865        C  0.73527668  0.28706940  0.00517748    -0.30400
N866        N  0.71079789  0.28543697  0.02258511     0.13800
C867        C  0.71270452  0.25992702  0.04012692    -0.30400
C868        C  0.82141711  0.23552173  0.02643911    -0.30600
N869        N  0.82340138  0.22671155  0.05581866     0.14300
H870        H  0.83640962  0.25261780  0.01647234     0.17000
C871        C  0.79729368  0.21085126  0.06177596    -0.30700
H872        H  0.79026071  0.20623191  0.08453286     0.17000
H873        H  0.69529740  0.25149999  0.05472242     0.17000
H874        H  0.75081793  0.21846852  0.92821651     0.17100
H875        H  0.73746199  0.30272799  0.98616641     0.17000
N876        N  0.61167289  0.36572962  0.01616973    -0.02600
C877        C  0.59259626  0.36882132  0.99112829     0.00000
C878        C  0.56440379  0.37765014  0.99953775    -0.22900
C879        C  0.56603984  0.37954168  0.03087499    -0.23100
C880        C  0.59521990  0.37187309  0.04060865    -0.00100
H881        H  0.54438935  0.38079513  0.98466127     0.13700
H882        H  0.54741079  0.38421736  0.04509789     0.13700
N883        N  0.86185732  0.26034067  0.12193724    -0.26400
N884        N  0.87393642  0.27699733  0.10018310    -0.34300
C885        C  0.86406166  0.26553020  0.07311087     0.01900
C886        C  0.84458967  0.24048186  0.07810122     0.07900
C887        C  0.84379459  0.23763839  0.10935815    -0.05200
H888        H  0.86833213  0.27670650  0.05170808     0.08600
H889        H  0.82970506  0.22178475  0.12200422     0.09800
Cu890      Cu  0.89524051  0.31951431  0.10731228     0.44200
Cu891      Cu  0.86972752  0.27127850  0.16709139     0.42000
Cu892      Cu  0.90807220  0.34598458  0.18300921     0.43900
N893        N  0.89735691  0.36564381  0.11823190    -0.33800
N894        N  0.90030537  0.37603549  0.14643268    -0.28100
C895        C  0.89667441  0.40679911  0.14598368    -0.04200
C896        C  0.89110456  0.41592835  0.11596121     0.08000
C897        C  0.89198691  0.38920012  0.09912384     0.01800
H898        H  0.89840818  0.42127523  0.16595630     0.09500
H899        H  0.88796884  0.38684129  0.07477229     0.08600
N900        N  0.91406573  0.30642496  0.20965265    -0.35300
N901        N  0.89843671  0.28017624  0.20452232    -0.27400
C902        C  0.91113072  0.25771546  0.22123295    -0.02700
C903        C  0.93602101  0.27000767  0.23800805     0.05900
C904        C  0.93731486  0.30101895  0.22985958     0.04000
H905        H  0.90536208  0.23343647  0.21802796     0.09100
H906        H  0.95587123  0.31746264  0.23530098     0.08000
C907        C  0.96215310  0.25136695  0.25037593     0.30900
C908        C  0.00920520  0.21696588  0.27113253     0.30900
C909        C  0.98163895  0.23865932  0.22558363    -0.05300
C910        C  0.98584987  0.26833093  0.27167085    -0.06100
C911        C  0.95332559  0.22258432  0.26851798    -0.06000
C912        C  0.00621503  0.22069201  0.23626304    -0.05300
C913        C  0.01033315  0.25072982  0.28201556    -0.06100
C914        C  0.97734222  0.20520806  0.27938372    -0.06000
C915        C  0.02926328  0.22673168  0.21656992    -0.31400
N916        N  0.01962159  0.24626543  0.19458478     0.15100
C917        C  0.99113725  0.25424456  0.20017904    -0.31400
H918        H  0.97974941  0.27334270  0.18919700     0.17100
C919        C  0.02270217  0.26478593  0.30795658    -0.30400
N920        N  0.00644144  0.28979752  0.31409138     0.13800
C921        C  0.98349894  0.29172037  0.29248561    -0.30400
C922        C  0.96525794  0.18194359  0.29703596    -0.30600
N923        N  0.93455411  0.18451957  0.29642919     0.14300
H924        H  0.97778405  0.16457287  0.30955631     0.17000
C925        C  0.92695426  0.20918556  0.27900579    -0.30700
H926        H  0.90410615  0.21733281  0.27525751     0.17000
H927        H  0.96416482  0.30621461  0.29410064     0.17000
H928        H  0.05303183  0.22206751  0.22088956     0.17100
H929        H  0.04002851  0.25546168  0.32334168     0.17000
N930        N  0.01213003  0.34632423  0.43051072    -0.02600
C931        C  0.03694746  0.34694210  0.45005691     0.00000
C932        C  0.02903608  0.35571366  0.47862894    -0.22900
C933        C  0.99810836  0.36041335  0.47641036    -0.23100
C934        C  0.98833276  0.35459768  0.44650539    -0.00100
H935        H  0.04392308  0.35790390  0.49892197     0.13700
H936        H  0.98402945  0.36598694  0.49492606     0.13700
N937        N  0.22552045  0.29917372  0.45010559    -0.26400
N938        N  0.20147624  0.28890223  0.46448956    -0.34300
C939        C  0.21065838  0.26881942  0.48614116     0.01900
C940        C  0.24206481  0.26644172  0.48600853     0.07900
C941        C  0.25062613  0.28634262  0.46286177    -0.05200
H942        H  0.19564434  0.25743965  0.50170134     0.08600
H943        H  0.27341970  0.29205472  0.45624952     0.09800
Cu944      Cu  0.15720643  0.30435167  0.45654698     0.44200
Cu945      Cu  0.22335705  0.33046239  0.41360781     0.42000
Cu946      Cu  0.14756923  0.35640377  0.39414527     0.43900
N947        N  0.11562141  0.32416203  0.44437969    -0.33800
N948        N  0.11201256  0.34183604  0.42005737    -0.28100
C949        C  0.08321241  0.35126165  0.41766870    -0.04200
C950        C  0.06799302  0.33951738  0.44200177     0.08000
C951        C  0.08921482  0.32258720  0.45866128     0.01800
H952        H  0.07455327  0.36705283  0.40052145     0.09500
H953        H  0.08581284  0.31040993  0.47975687     0.08600
N954        N  0.18583108  0.37232253  0.37287575    -0.35300
N955        N  0.21360059  0.36225441  0.37869522    -0.27400
C956        C  0.23281075  0.37692723  0.35999021    -0.02700
C957        C  0.21608145  0.39739248  0.34231223     0.05900
C958        C  0.18657513  0.39407481  0.35111452     0.04000
H959        H  0.25706319  0.37362538  0.35992058     0.09100
H960        H  0.16704297  0.40630839  0.34222849     0.08000
N961        N  0.11099672  0.35982693  0.65112989    -0.26400
N962        N  0.11593268  0.38583872  0.66653355    -0.34300
C963        C  0.08932204  0.39893118  0.67070671     0.01900
C964        C  0.06594100  0.38054255  0.65765224     0.07900
C965        C  0.08049201  0.35580509  0.64527470    -0.05200
H966        H  0.08726899  0.42137694  0.68092359     0.08600
H967        H  0.06990391  0.33760070  0.63118789     0.09800
Cu968      Cu  0.15829313  0.40574930  0.67853043     0.44200
Cu969      Cu  0.14794866  0.33419376  0.63685692     0.42000
Cu970      Cu  0.22429018  0.36523858  0.66541202     0.43900
N971        N  0.20162630  0.42389680  0.68933374    -0.33800
N972        N  0.22644863  0.40871382  0.68495555    -0.28100
C973        C  0.25095138  0.42577994  0.69544173    -0.04200
C974        C  0.24094421  0.45289510  0.70760438     0.08000
C975        C  0.20953772  0.45101792  0.70265639     0.01800
H976        H  0.27413593  0.41869694  0.69430016     0.09500
H977        H  0.19349371  0.46767609  0.70948858     0.08600
N978        N  0.21707459  0.32530246  0.63990202    -0.35300
N979        N  0.19036612  0.31505641  0.62775559    -0.27400
C980        C  0.19551894  0.29219185  0.60805381    -0.02700
C981        C  0.22663151  0.28734815  0.60881900     0.05900
C982        C  0.23951023  0.30890025  0.62898047     0.04000
H983        H  0.17816943  0.28099831  0.59316538     0.09100
H984        H  0.26356551  0.31430681  0.63315442     0.08000
N985        N  0.42498494  0.19362422  0.67735948    -0.26400
N986        N  0.44037648  0.16818863  0.68094588    -0.34300
C987        C  0.46295652  0.17234402  0.70238946     0.01900
C988        C  0.46257748  0.20207955  0.71336435     0.07900
C989        C  0.43807365  0.21506803  0.69679340    -0.05200
H990        H  0.47935781  0.15516105  0.70871242     0.08600
H991        H  0.43114239  0.23868388  0.69787159     0.09800
Cu992      Cu  0.43254055  0.12946684  0.65492298     0.44200
Cu993      Cu  0.38768714  0.19531228  0.64417137     0.42000
Cu994      Cu  0.37073853  0.12127516  0.60011566     0.43900
N995        N  0.42506591  0.09024559  0.62956850    -0.33800
N996        N  0.40183888  0.08567389  0.60964340    -0.28100
C997        C  0.40357191  0.05685820  0.59815482    -0.04200
C998        C  0.42923965  0.04326408  0.61160502     0.08000
C999        C  0.44221222  0.06528514  0.63113160     0.01800
H1000       H  0.38777576  0.04681848  0.58098050     0.09500
H1001       H  0.46254928  0.06320932  0.64579655     0.08600
N1002       N  0.34568266  0.16217314  0.59463261    -0.35300
N1003       N  0.35179126  0.18834064  0.60973543    -0.27400
C1004       C  0.33265505  0.20983336  0.59841624    -0.02700
C1005       C  0.31300235  0.19686996  0.57558092     0.05900
C1006       C  0.32258712  0.16669077  0.57370605     0.04000
H1007       H  0.33391157  0.23382084  0.60520369     0.09100
H1008       H  0.31461278  0.14973540  0.55687638     0.08000
N1009       N  0.11856346  0.09737481  0.49141506    -0.02600
C1010       C  0.10312676  0.09516478  0.46412715     0.00000
C1011       C  0.07409922  0.08268617  0.46754525    -0.22900
C1012       C  0.07154764  0.07727873  0.49815280    -0.23100
C1013       C  0.09910923  0.08669237  0.51214062    -0.00100
H1014       H  0.05617382  0.07953863  0.44992188     0.13700
H1015       H  0.05147407  0.06862919  0.50908133     0.13700
C1016       C  0.29337874  0.21439266  0.55175963     0.30900
C1017       C  0.26172140  0.24775741  0.50845546     0.30900
C1018       C  0.31273899  0.23098048  0.52781758    -0.05300
C1019       C  0.26940383  0.19571234  0.53135439    -0.06100
C1020       C  0.27433887  0.24053250  0.56376626    -0.06000
C1021       C  0.29647610  0.24829579  0.50535371    -0.05300
C1022       C  0.25389407  0.21309959  0.50908213    -0.06100
C1023       C  0.25828856  0.25714332  0.54158030    -0.06000
C1024       C  0.31216200  0.24573117  0.47895382    -0.31400
N1025       N  0.33700437  0.22878299  0.48443408     0.15100
C1026       C  0.33718069  0.21926271  0.51369634    -0.31400
H1027       H  0.35161002  0.20149639  0.52301810     0.17100
C1028       C  0.22973210  0.19548015  0.49732628    -0.30400
N1029       N  0.22892047  0.16806615  0.51204681     0.13800
C1030       C  0.25265654  0.16798499  0.53327771    -0.30400
C1031       C  0.23892907  0.27582096  0.55605962    -0.30600
N1032       N  0.24279978  0.27140512  0.58642497     0.14300
H1033       H  0.22265515  0.29108820  0.54536251     0.17000
C1034       C  0.26445446  0.25003483  0.59157720    -0.30700
H1035       H  0.27135883  0.24103995  0.61371931     0.17000
H1036       H  0.25560518  0.15061718  0.55074600     0.17000
H1037       H  0.30338644  0.25107316  0.45625555     0.17100
H1038       H  0.21190622  0.20326211  0.48154056     0.17000
N1039       N  0.42563219  0.20926892  0.33923960    -0.26400
N1040       N  0.43370442  0.18292348  0.32742214    -0.34300
C1041       C  0.45345961  0.18911444  0.30566458     0.01900
C1042       C  0.45768578  0.22084509  0.30289819     0.07900
C1043       C  0.44009035  0.23272107  0.32510749    -0.05200
H1044       H  0.46543541  0.17165418  0.29411629     0.08600
H1045       H  0.43922988  0.25666859  0.33171108     0.09800
Cu1046     Cu  0.42127889  0.13901371  0.34331552     0.44200
Cu1047     Cu  0.39877878  0.21290315  0.37700050     0.42000
Cu1048     Cu  0.39528451  0.14262716  0.41852728     0.43900
N1049       N  0.41069620  0.09958811  0.36855915    -0.33800
N1050       N  0.40269218  0.10178786  0.39696005    -0.28100
C1051       C  0.39932025  0.07350684  0.40887620    -0.04200
C1052       C  0.40504586  0.05220501  0.38693211     0.08000
C1053       C  0.41223128  0.06939886  0.36149123     0.01800
H1054       H  0.39326073  0.06880033  0.43198294     0.09500
H1055       H  0.41933203  0.06073116  0.34005976     0.08600
N1056       N  0.37907266  0.18298105  0.43466631    -0.35300
N1057       N  0.37818849  0.20887717  0.41877746    -0.27400
C1058       C  0.36314925  0.22977415  0.43438231    -0.02700
C1059       C  0.35493508  0.21614500  0.46145069     0.05900
C1060       C  0.36528554  0.18656211  0.46086338     0.04000
H1061       H  0.35858685  0.25293356  0.42667158     0.09100
H1062       H  0.36187765  0.16851961  0.47747965     0.08000
N1063       N  0.61513490  0.16843723  0.34517942    -0.26400
N1064       N  0.59114417  0.14912968  0.34521588    -0.34300
C1065       C  0.56695704  0.16294151  0.33231118     0.01900
C1066       C  0.57625860  0.19231729  0.32381323     0.07900
C1067       C  0.60690583  0.19516568  0.33207878    -0.05200
H1068       H  0.54402616  0.15296462  0.33107264     0.08600
H1069       H  0.62130044  0.21589495  0.33144435     0.09800
Cu1070     Cu  0.59013840  0.10697678  0.36718418     0.44200
Cu1071     Cu  0.65498238  0.16087583  0.37038850     0.42000
Cu1072     Cu  0.65135502  0.09499083  0.42150609     0.43900
N1073       N  0.59500539  0.06624561  0.39106366    -0.33800
N1074       N  0.61828103  0.06155999  0.41048827    -0.28100
C1075       C  0.61662585  0.03232102  0.42051208    -0.04200
C1076       C  0.59092084  0.01811046  0.40689918     0.08000
C1077       C  0.57762812  0.04016772  0.38842783     0.01800
H1078       H  0.63298382  0.02224437  0.43635995     0.09500
H1079       H  0.55769046  0.03707329  0.37314137     0.08600
N1080       N  0.67949665  0.13341811  0.42910671    -0.35300
N1081       N  0.68217484  0.15652269  0.40962435    -0.27400
C1082       C  0.69975667  0.17922847  0.42272346    -0.02700
C1083       C  0.70799886  0.16993686  0.45185567     0.05900
C1084       C  0.69489750  0.14090106  0.45535630     0.04000
H1085       H  0.70365281  0.20182479  0.41288250     0.09100
H1086       H  0.69505108  0.12700013  0.47578554     0.08000
N1087       N  0.62743609  0.36709092  0.11939695    -0.26400
N1088       N  0.60120684  0.35147162  0.12143156    -0.34300
C1089       C  0.58653185  0.35027122  0.09381666     0.01900
C1090       C  0.60435814  0.36538088  0.07302048     0.07900
C1091       C  0.63023076  0.37575054  0.09006351    -0.05200
H1092       H  0.56421140  0.33946803  0.08923247     0.08600
H1093       H  0.64893547  0.38983914  0.08206105     0.09800
Cu1094     Cu  0.58582522  0.33269636  0.16183357     0.44200
Cu1095     Cu  0.65614225  0.37789384  0.15816360     0.42000
Cu1096     Cu  0.63213310  0.34513655  0.23117328     0.43900
N1097       N  0.57470395  0.31359672  0.20359992    -0.33800
N1098       N  0.59192564  0.31721841  0.22896139    -0.28100
C1099       C  0.57844706  0.30162458  0.25155486    -0.04200
C1100       C  0.55143512  0.28743396  0.23988997     0.08000
C1101       C  0.54981442  0.29601443  0.20947228     0.01800
H1102       H  0.58719499  0.30142205  0.27496995     0.09500
H1103       H  0.53161627  0.29006111  0.19280332     0.08600
N1104       N  0.66954296  0.37630116  0.22714286    -0.35300
N1105       N  0.67826201  0.38785785  0.20097398    -0.27400
C1106       C  0.70102411  0.40905951  0.20685490    -0.02700
C1107       C  0.70744545  0.41098508  0.23813862     0.05900
C1108       C  0.68652701  0.39005169  0.25009206     0.04000
H1109       H  0.71060972  0.42386876  0.18972605     0.09100
H1110       H  0.68252312  0.38664677  0.27392154     0.08000
N1111       N  0.49468318  0.12054577  0.10919020    -0.02600
C1112       C  0.46972107  0.11217593  0.09137842     0.00000
C1113       C  0.47832645  0.09836005  0.06506215    -0.22900
C1114       C  0.50973500  0.09826758  0.06683568    -0.23100
C1115       C  0.51918811  0.11217088  0.09409144    -0.00100
H1116       H  0.46342812  0.08969048  0.04643104     0.13700
H1117       H  0.52411616  0.08957176  0.04983247     0.13700
C1118       C  0.48227136  0.23805686  0.28581168     0.30900
C1119       C  0.52715915  0.26924066  0.25671237     0.30900
C1120       C  0.51343114  0.23995072  0.30311553    -0.05300
C1121       C  0.48995070  0.22473930  0.25480632    -0.06100
C1122       C  0.47631292  0.27192937  0.27865472    -0.06000
C1123       C  0.53703296  0.25578794  0.28802474    -0.05300
C1124       C  0.51302283  0.24069241  0.24022641    -0.06100
C1125       C  0.49918295  0.28788951  0.26326940    -0.06000
C1126       C  0.56330229  0.24014234  0.29571155    -0.31400
N1127       N  0.55667766  0.21670311  0.31483756     0.15100
C1128       C  0.52661894  0.21640807  0.31930579    -0.31400
H1129       H  0.51431299  0.19777743  0.33020096     0.17100
C1130       C  0.51809887  0.22483933  0.21418335    -0.30400
N1131       N  0.49872318  0.19975140  0.21224597     0.13800
C1132       C  0.48124779  0.19948355  0.23685478    -0.30400
C1133       C  0.48486924  0.31064931  0.24653234    -0.30600
N1134       N  0.45494332  0.30990616  0.25239008     0.14300
H1135       H  0.49485219  0.32456730  0.22892579     0.17000
C1136       C  0.44939461  0.28610736  0.27138783    -0.30700
H1137       H  0.42683970  0.27712123  0.27606900     0.17000
H1138       H  0.46328468  0.18258237  0.24095265     0.17000
H1139       H  0.58455659  0.24264975  0.28445318     0.17100
H1140       H  0.53489420  0.23087240  0.19782907     0.17000
N1141       N  0.38744838  0.34549175  0.22251304    -0.26400
N1142       N  0.40290287  0.34326466  0.19768679    -0.34300
C1143       C  0.43027233  0.33176132  0.20498531     0.01900
C1144       C  0.43178765  0.32621231  0.23584195     0.07900
C1145       C  0.40429299  0.33478272  0.24637080    -0.05200
H1146       H  0.44700265  0.32635981  0.18883301     0.08600
H1147       H  0.39695745  0.33305910  0.26940965     0.09800
Cu1148     Cu  0.38523747  0.35353976  0.15476959     0.44200
Cu1149     Cu  0.34469045  0.36396672  0.22236428     0.42000
Cu1150     Cu  0.31680036  0.39629607  0.14968989     0.43900
N1151       N  0.36562322  0.36847593  0.11413022    -0.33800
N1152       N  0.34164479  0.38598715  0.11211766    -0.28100
C1153       C  0.33819587  0.39646091  0.08334938    -0.04200
C1154       C  0.36048801  0.38406358  0.06645153     0.08000
C1155       C  0.37754831  0.36668340  0.08676459     0.01800
H1156       H  0.32193404  0.41332588  0.07578661     0.09500
H1157       H  0.39882695  0.35605458  0.08265965     0.08600
N1158       N  0.29588630  0.40145539  0.19079845    -0.35300
N1159       N  0.30592921  0.38955494  0.21693369    -0.27400
C1160       C  0.28989130  0.40056971  0.23943348    -0.02700
C1161       C  0.26802700  0.41984886  0.22709219     0.05900
C1162       C  0.27303038  0.42013277  0.19615142     0.04000
H1163       H  0.29578733  0.39721651  0.26333455     0.09100
H1164       H  0.26308697  0.43540844  0.17924670     0.08000
N1165       N  0.20428932  0.55570658  0.32201443    -0.26400
N1166       N  0.17836365  0.53939816  0.31834867    -0.34300
C1167       C  0.18253162  0.51513883  0.30025591     0.01900
C1168       C  0.21244665  0.51613275  0.29180776     0.07900
C1169       C  0.22560559  0.54215411  0.30622389    -0.05200
H1170       H  0.16522988  0.49750539  0.29428878     0.08600
H1171       H  0.24925814  0.54989564  0.30649795     0.09800
Cu1172     Cu  0.13850410  0.54977629  0.33889847     0.44200
Cu1173     Cu  0.20996299  0.59416792  0.35057905     0.42000
Cu1174     Cu  0.14170704  0.61493555  0.38881825     0.43900
N1175       N  0.10057212  0.56565858  0.35938662    -0.33800
N1176       N  0.10135582  0.59053870  0.37673451    -0.28100
C1177       C  0.07313297  0.59509947  0.38597051    -0.04200
C1178       C  0.05385154  0.57173916  0.37406339     0.08000
C1179       C  0.07201529  0.55337984  0.35757236     0.01800
H1180       H  0.06740348  0.61320969  0.40128915     0.09500
H1181       H  0.06502731  0.53248611  0.34534505     0.08600
N1182       N  0.18496212  0.63440922  0.39878453    -0.35300
N1183       N  0.20960161  0.62811043  0.38419687    -0.27400
C1184       C  0.23360037  0.64479263  0.39663919    -0.02700
C1185       C  0.22338383  0.66189268  0.42028818     0.05900
C1186       C  0.19264088  0.65464290  0.42123095     0.04000
H1187       H  0.25684337  0.64334723  0.39001228     0.09100
H1188       H  0.17706567  0.66310437  0.43723538     0.08000
N1189       N  0.33287611  0.57979714  0.19346895    -0.26400
N1190       N  0.33437071  0.55766813  0.17296696    -0.34300
C1191       C  0.31942479  0.53225896  0.18291379     0.01900
C1192       C  0.30791045  0.53909327  0.21073940     0.07900
C1193       C  0.31674908  0.56934114  0.21676273    -0.05200
H1194       H  0.31750928  0.51045523  0.17097830     0.08600
H1195       H  0.31318111  0.58229417  0.23717170     0.09800
Cu1196     Cu  0.35726440  0.56277115  0.13253661     0.44200
Cu1197     Cu  0.35640008  0.62164624  0.19168065     0.42000
Cu1198     Cu  0.39636534  0.63729302  0.12504445     0.43900
N1199       N  0.37900057  0.57713687  0.09337887    -0.33800
N1200       N  0.39173213  0.60506838  0.09078394    -0.28100
C1201       C  0.40244336  0.60848955  0.06297420    -0.04200
C1202       C  0.39663046  0.58137911  0.04725180     0.08000
C1203       C  0.38175877  0.56182086  0.06704410     0.01800
H1204       H  0.41399255  0.62914457  0.05495194     0.09500
H1205       H  0.37304571  0.53856307  0.06243699     0.08600
N1206       N  0.40414182  0.66236463  0.16441658    -0.35300
N1207       N  0.38923494  0.65650702  0.18912724    -0.27400
C1208       C  0.40254579  0.67274677  0.21237678    -0.02700
C1209       C  0.42680058  0.69012664  0.20171766     0.05900
C1210       C  0.42731522  0.68260481  0.17122028     0.04000
H1211       H  0.39658798  0.67003306  0.23578440     0.09100
H1212       H  0.44472288  0.68930614  0.15577557     0.08000
N1213       N  0.08887542  0.48162628  0.10836814    -0.02600
C1214       C  0.08230180  0.45909793  0.08748492     0.00000
C1215       C  0.06650839  0.47073450  0.06236684    -0.22900
C1216       C  0.06359350  0.50175497  0.06787499    -0.23100
C1217       C  0.07755569  0.50787271  0.09623429    -0.00100
H1218       H  0.05860806  0.45824424  0.04204216     0.13700
H1219       H  0.05385579  0.51838914  0.05217268     0.13700
C1220       C  0.25293039  0.44485623  0.24412756     0.30900
C1221       C  0.22757792  0.49151807  0.27415040     0.30900
C1222       C  0.27333635  0.47413570  0.24890140    -0.05300
C1223       C  0.22366475  0.45751231  0.22886068    -0.06100
C1224       C  0.24346360  0.43711387  0.27642229    -0.06000
C1225       C  0.26029032  0.49865111  0.26413847    -0.05300
C1226       C  0.21086679  0.48141274  0.24421143    -0.06100
C1227       C  0.23036189  0.46092480  0.29154431    -0.06000
C1228       C  0.27253928  0.52544467  0.25150880    -0.31400
N1229       N  0.29279430  0.51809723  0.23075357     0.15100
C1230       C  0.29307234  0.48712930  0.22879789    -0.31400
H1231       H  0.30427812  0.47484438  0.21145953     0.17100
C1232       C  0.18592536  0.49052250  0.22680279    -0.30400
N1233       N  0.18327974  0.47294159  0.20124424     0.13800
C1234       C  0.20600085  0.45247478  0.20242247    -0.30400
C1235       C  0.21986684  0.44888670  0.31819416    -0.30600
N1236       N  0.22684478  0.41868211  0.31996178     0.14300
H1237       H  0.20691126  0.46079515  0.33448488     0.17000
C1238       C  0.24115754  0.41113281  0.29455396    -0.30700
H1239       H  0.24733790  0.38803333  0.28879791     0.17000
H1240       H  0.20909490  0.43500528  0.18552725     0.17000
H1241       H  0.26433233  0.54841868  0.25429113     0.17100
H1242       H  0.17106358  0.50893606  0.23201002     0.17000
N1243       N  0.64480694  0.07106476  0.63421484    -0.26400
N1244       N  0.67211609  0.07411267  0.62309509    -0.34300
C1245       C  0.68043965  0.04679940  0.61260687     0.01900
C1246       C  0.65740281  0.02514845  0.61703253     0.07900
C1247       C  0.63487969  0.04137437  0.63040766    -0.05200
H1248       H  0.70042424  0.04367180  0.59980877     0.08600
H1249       H  0.61229490  0.03265148  0.63525894     0.09800
Cu1250     Cu  0.69404739  0.11580626  0.61494876     0.44200
Cu1251     Cu  0.62221784  0.10907373  0.65139531     0.42000
Cu1252     Cu  0.66337938  0.18389945  0.64190876     0.43900
N1253       N  0.70837169  0.15904142  0.60103263    -0.33800
N1254       N  0.69746272  0.18465559  0.61138978    -0.28100
C1255       C  0.70982874  0.20886589  0.59670293    -0.04200
C1256       C  0.72975665  0.19788037  0.57615934     0.08000
C1257       C  0.72761316  0.16611004  0.57923425     0.01800
H1258       H  0.70336563  0.23242826  0.59965550     0.09500
H1259       H  0.73817763  0.14917094  0.56561221     0.08600
N1260       N  0.62518988  0.17773958  0.66693339    -0.35300
N1261       N  0.60882582  0.15158500  0.66903833    -0.27400
C1262       C  0.58375720  0.15735385  0.68432737    -0.02700
C1263       C  0.58521293  0.18827977  0.69253911     0.05900
C1264       C  0.61162737  0.20043500  0.68125214     0.04000
H1265       H  0.56598046  0.14042219  0.68913080     0.09100
H1266       H  0.61971193  0.22429151  0.68209755     0.08000
N1267       N  0.80007567  0.40532721  0.70694248    -0.26400
N1268       N  0.82566778  0.42083081  0.71504657    -0.34300
C1269       C  0.81899396  0.44370736  0.73397025     0.01900
C1270       C  0.78774861  0.44277020  0.73772021     0.07900
C1271       C  0.77664710  0.41810040  0.72006902    -0.05200
H1272       H  0.83536710  0.46108276  0.74282093     0.08600
H1273       H  0.75303924  0.41125091  0.71513931     0.09800
Cu1274     Cu  0.86804520  0.41262572  0.69706642     0.44200
Cu1275     Cu  0.79641915  0.37016047  0.67520796     0.42000
Cu1276     Cu  0.86587844  0.35206588  0.64129352     0.43900
N1277       N  0.90681807  0.39786257  0.67599159    -0.33800
N1278       N  0.90579782  0.37411461  0.65713617    -0.28100
C1279       C  0.93385959  0.36939191  0.64777241    -0.04200
C1280       C  0.95358727  0.39153651  0.66087568     0.08000
C1281       C  0.93573008  0.40944552  0.67842290     0.01800
H1282       H  0.93915054  0.35219818  0.63127708     0.09500
H1283       H  0.94318223  0.42952123  0.69172579     0.08600
N1284       N  0.82356116  0.33596522  0.62493128    -0.35300
N1285       N  0.79793947  0.34123637  0.63814871    -0.27400
C1286       C  0.77452150  0.32707383  0.62218740    -0.02700
C1287       C  0.78629101  0.31305867  0.59751495     0.05900
C1288       C  0.81729953  0.31894437  0.59982335     0.04000
H1289       H  0.75087501  0.32757867  0.62772859     0.09100
H1290       H  0.83408729  0.31105523  0.58479628     0.08000
C1291       C  0.77839837  0.24582041  0.50957004     0.30900
C1292       C  0.74772479  0.21568878  0.55306796     0.30900
C1293       C  0.75206149  0.22474147  0.49804633    -0.05300
C1294       C  0.79771115  0.22415872  0.52984422    -0.06100
C1295       C  0.76400452  0.26670312  0.53242317    -0.06000
C1296       C  0.73646160  0.20904196  0.52014680    -0.05300
C1297       C  0.78187501  0.20893762  0.55292720    -0.06100
C1298       C  0.74799760  0.25116702  0.55524983    -0.06000
C1299       C  0.71832664  0.18659040  0.50545371    -0.31400
N1300       N  0.72231253  0.18902864  0.47516679     0.15100
C1301       C  0.74296390  0.21216647  0.47038672    -0.31400
H1302       H  0.75207037  0.21795590  0.44865071     0.17100
C1303       C  0.79604741  0.18150150  0.55847260    -0.30400
N1304       N  0.81881934  0.17884403  0.53941563     0.13800
C1305       C  0.81973773  0.20428011  0.52160187    -0.30400
C1306       C  0.75282237  0.26907066  0.58119901    -0.30600
N1307       N  0.77012280  0.29437513  0.57495873     0.14300
H1308       H  0.74905251  0.26140394  0.60414757     0.17000
C1309       C  0.77745377  0.29288389  0.54567487    -0.30700
H1310       H  0.79532924  0.30703263  0.53604472     0.17000
H1311       H  0.83293085  0.20639157  0.50167144     0.17000
H1312       H  0.70420421  0.16908421  0.51599148     0.17100
H1313       H  0.78880892  0.16345549  0.57389742     0.17000
N1314       N  0.89084886  0.07402834  0.52643529    -0.02600
C1315       C  0.88982502  0.05557773  0.50141382     0.00000
C1316       C  0.89977885  0.02664431  0.50913063    -0.22900
C1317       C  0.90657292  0.02707060  0.54004275    -0.23100
C1318       C  0.90056163  0.05627465  0.55026886    -0.00100
H1319       H  0.90081229  0.00700398  0.49415479     0.13700
H1320       H  0.91345995  0.00760061  0.55384499     0.13700
N1321       N  0.80299037  0.29440547  0.44609940    -0.26400
N1322       N  0.82951964  0.28846198  0.45977619    -0.34300
C1323       C  0.82525003  0.26969639  0.48357175     0.01900
C1324       C  0.79436536  0.26329147  0.48501674     0.07900
C1325       C  0.78088294  0.27973896  0.46114698    -0.05200
H1326       H  0.84323029  0.26265211  0.49949975     0.08600
H1327       H  0.75675450  0.28142002  0.45559057     0.09800
Cu1328     Cu  0.86959085  0.30909520  0.44746274     0.44200
Cu1329     Cu  0.79943708  0.32411820  0.40903189     0.42000
Cu1330     Cu  0.86990336  0.36826723  0.38969517     0.43900
N1331       N  0.90818622  0.33316196  0.43598831    -0.33800
N1332       N  0.90957749  0.35451937  0.41456189    -0.28100
C1333       C  0.93884917  0.36522327  0.41392884    -0.04200
C1334       C  0.95600056  0.34997463  0.43636558     0.08000
C1335       C  0.93576155  0.33004730  0.44978399     0.01800
H1336       H  0.94681928  0.38338730  0.39911265     0.09500
H1337       H  0.94064398  0.31449832  0.46851788     0.08600
N1338       N  0.82582561  0.37541198  0.36991769    -0.35300
N1339       N  0.80122568  0.35821733  0.37577007    -0.27400
C1340       C  0.77699501  0.36853300  0.35926000    -0.02700
C1341       C  0.78658905  0.39366440  0.34259425     0.05900
C1342       C  0.81751770  0.39772089  0.35001135     0.04000
H1343       H  0.75385095  0.35954953  0.36072656     0.09100
H1344       H  0.83270944  0.41574192  0.34190058     0.08000
N1345       N  0.81973603  0.64944038  0.38859178    -0.26400
N1346       N  0.79221519  0.63855597  0.37946673    -0.34300
C1347       C  0.77139999  0.65599229  0.39208304     0.01900
C1348       C  0.78616635  0.67919610  0.40975165     0.07900
C1349       C  0.81687792  0.67379287  0.40717585    -0.05200
H1350       H  0.74708712  0.65110445  0.39004134     0.08600
H1351       H  0.83585778  0.68504760  0.41968946     0.09800
Cu1352     Cu  0.78324210  0.59809714  0.35288218     0.44200
Cu1353     Cu  0.86082311  0.62899281  0.37915463     0.42000
Cu1354     Cu  0.84971486  0.55531640  0.34361309     0.43900
N1355       N  0.78246282  0.55594745  0.32839160    -0.33800
N1356       N  0.80758731  0.54061538  0.32579388    -0.28100
C1357       C  0.80128954  0.51462085  0.30984750    -0.04200
C1358       C  0.77060412  0.51308506  0.30133200     0.08000
C1359       C  0.75923986  0.53969218  0.31380673     0.01800
H1360       H  0.81795474  0.49784140  0.30491064     0.09500
H1361       H  0.73576114  0.54633369  0.31301363     0.08600
N1362       N  0.89183303  0.57258311  0.35899188    -0.35300
N1363       N  0.89697760  0.60032828  0.37092193    -0.27400
C1364       C  0.92708148  0.60388328  0.37856200    -0.02700
C1365       C  0.94105170  0.57681817  0.37135267     0.05900
C1366       C  0.91795243  0.55758436  0.35919473     0.04000
H1367       H  0.93765561  0.62380800  0.39012432     0.09100
H1368       H  0.91985747  0.53405541  0.35161424     0.08000
C1369       C  0.75395032  0.48633970  0.28433073     0.30900
C1370       C  0.72502169  0.43733127  0.25510778     0.30900
C1371       C  0.72174856  0.49237226  0.27084243    -0.05300
C1372       C  0.76982200  0.47387841  0.25682803    -0.06100
C1373       C  0.74970703  0.45714480  0.30383077    -0.06000
C1374       C  0.70698448  0.46707479  0.25547286    -0.05300
C1375       C  0.75521152  0.44863722  0.24218243    -0.06100
C1376       C  0.73454231  0.43172723  0.28893093    -0.06000
C1377       C  0.68891656  0.47931139  0.23202632    -0.31400
N1378       N  0.69139986  0.51039031  0.23299824     0.15100
C1379       C  0.71157938  0.51855534  0.25601284    -0.31400
H1380       H  0.72131219  0.54168645  0.25906492     0.17100
C1381       C  0.77217258  0.44142640  0.21807505    -0.30400
N1382       N  0.79640940  0.46177721  0.21729558     0.13800
C1383       C  0.79510258  0.48179557  0.24088089    -0.30400
C1384       C  0.74644112  0.40556804  0.30265351    -0.30600
N1385       N  0.76740763  0.41400975  0.32503505     0.14300
H1386       H  0.74284303  0.38218008  0.29434990     0.17000
C1387       C  0.77004705  0.44511410  0.32538711    -0.30700
H1388       H  0.78767218  0.45807406  0.33843247     0.17000
H1389       H  0.81022089  0.50168811  0.24504054     0.17000
H1390       H  0.67714573  0.46644385  0.21368518     0.17100
H1391       H  0.76679261  0.42328047  0.20161118     0.17000
N1392       N  0.87291450  0.47058542  0.11696616    -0.02600
C1393       C  0.87283154  0.49441144  0.09708321     0.00000
C1394       C  0.88632629  0.48638146  0.07077386    -0.22900
C1395       C  0.89498778  0.45631790  0.07470451    -0.23100
C1396       C  0.88654216  0.44718264  0.10333493    -0.00100
H1397       H  0.89008606  0.50093400  0.05122515     0.13700
H1398       H  0.90638049  0.44269251  0.05848813     0.13700
N1399       N  0.58827324  0.63351035  0.18640048    -0.26400
N1400       N  0.57023373  0.63476250  0.16150805    -0.34300
C1401       C  0.54416441  0.64793615  0.16802762     0.01900
C1402       C  0.54635680  0.65540762  0.19850936     0.07900
C1403       C  0.57450727  0.64623957  0.20955513    -0.05200
H1404       H  0.52515062  0.65140241  0.15194901     0.08600
H1405       H  0.58357029  0.64716015  0.23287261     0.09800
Cu1406     Cu  0.58183526  0.61661783  0.12084352     0.44200
Cu1407     Cu  0.62747938  0.60882683  0.18877654     0.42000
Cu1408     Cu  0.63972086  0.55881671  0.12444293     0.43900
N1409       N  0.59799058  0.59624615  0.08312919    -0.33800
N1410       N  0.61887627  0.57502329  0.08374725    -0.28100
C1411       C  0.62249231  0.56583999  0.05492813    -0.04200
C1412       C  0.60310615  0.58233616  0.03569014     0.08000
C1413       C  0.58781554  0.60109751  0.05432156     0.01800
H1414       H  0.63711729  0.54766477  0.04858048     0.09500
H1415       H  0.56966987  0.61626882  0.04759988     0.08600
N1416       N  0.65705956  0.55101291  0.16906500    -0.35300
N1417       N  0.65437907  0.57089119  0.19149265    -0.27400
C1418       C  0.66731302  0.55972656  0.21736149    -0.02700
C1419       C  0.67824183  0.53124646  0.21110134     0.05900
C1420       C  0.67138847  0.52613831  0.18038327     0.04000
H1421       H  0.66694045  0.57062215  0.23940973     0.09100
H1422       H  0.67603790  0.50585336  0.16739920     0.08000
N1423       N  0.21667351  0.61288996  0.63889859    -0.26400
N1424       N  0.19114107  0.59711666  0.64385467    -0.34300
C1425       C  0.19714843  0.57373340  0.66295261     0.01900
C1426       C  0.22786914  0.57549516  0.67059994     0.07900
C1427       C  0.23979892  0.60046635  0.65525902    -0.05200
H1428       H  0.18058455  0.55652940  0.67011676     0.08600
H1429       H  0.26349749  0.60793071  0.65462911     0.09800
Cu1430     Cu  0.15008705  0.60647795  0.62239790     0.44200
Cu1431     Cu  0.21871348  0.64728152  0.60675491     0.42000
Cu1432     Cu  0.14931535  0.65982398  0.55909626     0.43900
N1433       N  0.11231945  0.61361250  0.59444620    -0.33800
N1434       N  0.11186205  0.63173108  0.57024418    -0.28100
C1435       C  0.08425093  0.62838141  0.55560091    -0.04200
C1436       C  0.06672238  0.60761423  0.57185444     0.08000
C1437       C  0.08520222  0.59878949  0.59625869     0.01800
H1438       H  0.07735544  0.64035464  0.53493141     0.09500
H1439       H  0.07978864  0.58198751  0.61353557     0.08600
N1440       N  0.19113667  0.68334367  0.55409756    -0.35300
N1441       N  0.21603274  0.67804433  0.57114105    -0.27400
C1442       C  0.23976657  0.69391793  0.56010354    -0.02700
C1443       C  0.22949198  0.71102492  0.53537896     0.05900
C1444       C  0.19854546  0.70328127  0.53196400     0.04000
H1445       H  0.26310291  0.69118395  0.56823188     0.09100
H1446       H  0.18305144  0.70993134  0.51340147     0.08000
N1447       N  0.56201590  0.76392359  0.30502801    -0.26400
N1448       N  0.54597807  0.78903245  0.30233841    -0.34300
C1449       C  0.52087165  0.78264443  0.28446080     0.01900
C1450       C  0.52081447  0.75189727  0.27587709     0.07900
C1451       C  0.54710589  0.74072618  0.28985698    -0.05200
H1452       H  0.50379014  0.79916830  0.27824108     0.08600
H1453       H  0.55493758  0.71745523  0.28971234     0.09800
Cu1454     Cu  0.55772743  0.83009695  0.32467596     0.44200
Cu1455     Cu  0.60474536  0.76202435  0.32639412     0.42000
Cu1456     Cu  0.63513316  0.83389318  0.35538091     0.43900
N1457       N  0.57586585  0.86637280  0.35115775    -0.33800
N1458       N  0.60475790  0.86818159  0.36099887    -0.28100
C1459       C  0.60982006  0.89381037  0.37774690    -0.04200
C1460       C  0.58274686  0.90870621  0.37889606     0.08000
C1461       C  0.56159711  0.89070234  0.36185849     0.01800
H1462       H  0.63137517  0.90029830  0.38914882     0.09500
H1463       H  0.53767519  0.89494935  0.35755953     0.08600
N1464       N  0.65903995  0.79392554  0.35730963    -0.35300
N1465       N  0.64792123  0.76713096  0.34671771    -0.27400
C1466       C  0.66640278  0.74469362  0.35638166    -0.02700
C1467       C  0.69011014  0.75819121  0.37399991     0.05900
C1468       C  0.68462199  0.78931426  0.37435026     0.04000
H1469       H  0.66092203  0.72026233  0.35407244     0.09100
H1470       H  0.69629019  0.80665805  0.38873335     0.08000
C1471       C  0.45180618  0.70640894  0.22081727     0.30900
C1472       C  0.49666091  0.73488532  0.25601647     0.30900
C1473       C  0.47932850  0.68659930  0.22883653    -0.05300
C1474       C  0.46654173  0.73532441  0.20696738    -0.06100
C1475       C  0.44222477  0.71770454  0.25174866    -0.06000
C1476       C  0.50282301  0.70142036  0.24719993    -0.05300
C1477       C  0.48959181  0.74973737  0.22507036    -0.06100
C1478       C  0.46546814  0.73250929  0.26994640    -0.06000
C1479       C  0.52974337  0.69001025  0.23780822    -0.31400
N1480       N  0.52369202  0.66884743  0.21581879     0.15100
C1481       C  0.49335575  0.66705339  0.20962042    -0.31400
H1482       H  0.48256819  0.65524997  0.19006094     0.17100
C1483       C  0.50037204  0.77469415  0.20932770    -0.30400
N1484       N  0.48453873  0.77577558  0.18210242     0.13800
C1485       C  0.46367530  0.75192219  0.18035297    -0.30400
C1486       C  0.45157279  0.75370506  0.28743620    -0.30600
N1487       N  0.42127599  0.75180926  0.28100571     0.14300
H1488       H  0.46282065  0.77119265  0.30190044     0.17000
C1489       C  0.41527876  0.73052571  0.25907176    -0.30700
H1490       H  0.39344906  0.72743230  0.24671681     0.17000
H1491       H  0.44711586  0.74774082  0.16165427     0.17000
H1492       H  0.55233009  0.69995676  0.24269638     0.17100
H1493       H  0.51806785  0.79123920  0.21716570     0.17000
N1494       N  0.49747153  0.87721969  0.10234907    -0.02600
C1495       C  0.52322836  0.89522928  0.10133043     0.00000
C1496       C  0.51691714  0.92253581  0.08651457    -0.22900
C1497       C  0.48607246  0.92116091  0.07845659    -0.23100
C1498       C  0.47466978  0.89291378  0.08837641    -0.00100
H1499       H  0.53285312  0.94146619  0.08229254     0.13700
H1500       H  0.47326682  0.93909478  0.06715478     0.13700
N1501       N  0.32354847  0.80931607  0.42093911    -0.26400
N1502       N  0.32299409  0.78484832  0.40315047    -0.34300
C1503       C  0.30992730  0.76067127  0.41716098     0.01900
C1504       C  0.30068483  0.77045777  0.44494728     0.07900
C1505       C  0.31009013  0.80140603  0.44670415    -0.05200
H1506       H  0.30759662  0.73788395  0.40744275     0.08600
H1507       H  0.30668280  0.81715033  0.46515068     0.09800
Cu1508     Cu  0.33916437  0.78538598  0.36039385     0.44200
Cu1509     Cu  0.34257381  0.85191949  0.40828026     0.42000
Cu1510     Cu  0.37737640  0.85501402  0.33484316     0.43900
N1511       N  0.36592452  0.78695304  0.32380030    -0.33800
N1512       N  0.38193185  0.81177574  0.31574290    -0.28100
C1513       C  0.40323578  0.80314582  0.29697426    -0.04200
C1514       C  0.39959627  0.77164668  0.29268954     0.08000
C1515       C  0.37590407  0.76204579  0.30992542     0.01800
H1516       H  0.42126121  0.81818715  0.28890775     0.09500
H1517       H  0.36898645  0.73847835  0.31497654     0.08600
N1518       N  0.37293235  0.89345146  0.36210281    -0.35300
N1519       N  0.36177856  0.89184511  0.38943348    -0.27400
C1520       C  0.36619305  0.91946028  0.40306497    -0.02700
C1521       C  0.38013706  0.93958265  0.38321541     0.05900
C1522       C  0.38411118  0.92234501  0.35744798     0.04000
H1523       H  0.36084390  0.92420795  0.42626664     0.09100
H1524       H  0.39645946  0.92952100  0.33785978     0.08000
N1525       N  0.38390555  0.77675947  0.60089424    -0.26400
N1526       N  0.37540958  0.80476075  0.59298036    -0.34300
C1527       C  0.35204570  0.80259265  0.57203674     0.01900
C1528       C  0.34508669  0.77175152  0.56701168     0.07900
C1529       C  0.36560407  0.75582103  0.58546933    -0.05200
H1530       H  0.34145858  0.82198895  0.56084432     0.08600
H1531       H  0.36799635  0.73110524  0.58651070     0.09800
Cu1532     Cu  0.39735432  0.84495984  0.60883397     0.44200
Cu1533     Cu  0.42242445  0.76950029  0.62993158     0.42000
Cu1534     Cu  0.47154999  0.83888708  0.64655375     0.43900
N1535       N  0.42554680  0.88292569  0.61959117    -0.33800
N1536       N  0.45372348  0.88104925  0.63130981    -0.28100
C1537       C  0.46708733  0.90960905  0.63140059    -0.04200
C1538       C  0.44598652  0.93027952  0.61982609     0.08000
C1539       C  0.41996944  0.91247616  0.61268782     0.01800
H1540       H  0.49039368  0.91496808  0.63923356     0.09500
H1541       H  0.39899775  0.92017527  0.60172723     0.08600
N1542       N  0.48122883  0.79417303  0.66250712    -0.35300
N1543       N  0.46318068  0.76945760  0.65708893    -0.27400
C1544       C  0.47548262  0.74499072  0.67146838    -0.02700
C1545       C  0.50252071  0.75449631  0.68698250     0.05900
C1546       C  0.50550814  0.78580015  0.68027413     0.04000
H1547       H  0.46564232  0.72179200  0.67020207     0.09100
H1548       H  0.52397303  0.80145490  0.68807936     0.08000
C1549       C  0.28228587  0.75302727  0.46791443     0.30900
C1550       C  0.24881662  0.72635603  0.51191370     0.30900
C1551       C  0.29803571  0.75181057  0.49988605    -0.05300
C1552       C  0.25240575  0.76820440  0.47390379    -0.06100
C1553       C  0.27172826  0.71894200  0.46173221    -0.06000
C1554       C  0.28104979  0.73818670  0.52243791    -0.05300
C1555       C  0.23532545  0.75483873  0.49636949    -0.06100
C1556       C  0.25472138  0.70538326  0.48490478    -0.06000
C1557       C  0.29733747  0.74327708  0.54982576    -0.31400
N1558       N  0.32361912  0.75916729  0.54429091     0.15100
C1559       C  0.32408691  0.76493750  0.51400511    -0.31400
H1560       H  0.34144031  0.77886616  0.50331611     0.17100
C1561       C  0.21062118  0.77297100  0.49946267    -0.30400
N1562       N  0.21255258  0.79685016  0.47951877     0.13800
C1563       C  0.23782660  0.79392949  0.46356782    -0.30400
C1564       C  0.23636263  0.68212604  0.47180133    -0.30600
N1565       N  0.24142283  0.68044867  0.44190083     0.14300
H1566       H  0.21823882  0.66944213  0.48260930     0.17000
C1567       C  0.26191402  0.70322833  0.43522926    -0.30700
H1568       H  0.26594304  0.71022096  0.41220386     0.17000
H1569       H  0.24513707  0.80948918  0.44593858     0.17000
H1570       H  0.28982107  0.73799327  0.57230463     0.17100
H1571       H  0.19311385  0.76975790  0.51568623     0.17000
N1572       N  0.13005462  0.89443698  0.47400562    -0.02600
C1573       C  0.12741805  0.91653700  0.45220992     0.00000
C1574       C  0.11717873  0.94329692  0.46440115    -0.22900
C1575       C  0.11397168  0.93756448  0.49496921    -0.23100
C1576       C  0.12214469  0.90743029  0.50034194    -0.00100
H1577       H  0.11372796  0.96496461  0.45271412     0.13700
H1578       H  0.10849049  0.95429148  0.51185563     0.13700
N1579       N  0.40930148  0.60728612  0.88788316    -0.26400
N1580       N  0.38026466  0.59880684  0.88986821    -0.34300
C1581       C  0.37523905  0.59120424  0.91890340     0.01900
C1582       C  0.40248329  0.59459353  0.93585484     0.07900
C1583       C  0.42363144  0.60454879  0.91547603    -0.05200
H1584       H  0.35388527  0.58174109  0.92662803     0.08600
H1585       H  0.44779579  0.60880423  0.92021803     0.09800
Cu1586     Cu  0.35034021  0.59200908  0.85218113     0.44200
Cu1587     Cu  0.42842029  0.62146828  0.84756894     0.42000
Cu1588     Cu  0.37809835  0.61716403  0.78019635     0.43900
N1589       N  0.32962371  0.57897364  0.81042453    -0.33800
N1590       N  0.33985227  0.58830513  0.78413406    -0.28100
C1591       C  0.32462487  0.57249845  0.76157516    -0.04200
C1592       C  0.30339186  0.55243594  0.77402648     0.08000
C1593       C  0.30766844  0.55689106  0.80519657     0.01800
H1594       H  0.33017418  0.57377392  0.73794058     0.09500
H1595       H  0.29778951  0.54319037  0.82292893     0.08600
N1596       N  0.42110260  0.63846687  0.78107738    -0.35300
N1597       N  0.44026935  0.63848992  0.80529042    -0.27400
C1598       C  0.46721273  0.65127224  0.79774961    -0.02700
C1599       C  0.46445552  0.66002648  0.76752154     0.05900
C1600       C  0.43504785  0.65170402  0.75758195     0.04000
H1601       H  0.48717970  0.65394691  0.81307804     0.09100
H1602       H  0.42497287  0.65383002  0.73476988     0.08000
C1603       C  0.25871773  0.47826575  0.72519462     0.30900
C1604       C  0.28670662  0.52583877  0.75740081     0.30900
C1605       C  0.25755785  0.51000225  0.71014172    -0.05300
C1606       C  0.24652572  0.48439200  0.75631362    -0.06100
C1607       C  0.29297020  0.47461713  0.73294316    -0.06000
C1608       C  0.27212897  0.53420980  0.72642530    -0.05300
C1609       C  0.26024406  0.50883999  0.77290552    -0.06100
C1610       C  0.30745010  0.49959047  0.74942688    -0.06000
C1611       C  0.26385353  0.56119730  0.71246880    -0.31400
N1612       N  0.24445798  0.55386406  0.68850564     0.15100
C1613       C  0.24005532  0.52281431  0.68703820    -0.31400
H1614       H  0.22390941  0.51072407  0.67148492     0.17100
C1615       C  0.24371555  0.51167855  0.79856377    -0.30400
N1616       N  0.22100760  0.48947046  0.79763474     0.13800
C1617       C  0.22291642  0.47248129  0.77216695    -0.30400
C1618       C  0.33018094  0.48747327  0.76794280    -0.30600
N1619       N  0.33022448  0.45667511  0.76382466     0.14300
H1620       H  0.34253521  0.49966943  0.78637619     0.17000
C1621       C  0.30749564  0.44861461  0.74324781    -0.30700
H1622       H  0.29886351  0.42514489  0.74000536     0.17000
H1623       H  0.20821667  0.45281375  0.76577537     0.17000
H1624       H  0.26921318  0.58438251  0.72061810     0.17100
H1625       H  0.24707101  0.52904683  0.81612405     0.17000
N1626       N  0.13487765  0.46619564  0.88672399    -0.02600
C1627       C  0.11744433  0.44069978  0.89299805     0.00000
C1628       C  0.09339583  0.44914112  0.90984468    -0.22900
C1629       C  0.09613239  0.48083095  0.91367390    -0.23100
C1630       C  0.12164312  0.49077940  0.89886615    -0.00100
H1631       H  0.07530822  0.43405647  0.91772022     0.13700
H1632       H  0.08020277  0.49517105  0.92444774     0.13700
N1633       N  0.35942071  0.39241373  0.80567293    -0.26400
N1634       N  0.36939353  0.41539454  0.82362022    -0.34300
C1635       C  0.36150836  0.44223565  0.81078246     0.01900
C1636       C  0.34599995  0.43551571  0.78336758     0.07900
C1637       C  0.34509603  0.40380571  0.78070597    -0.05200
H1638       H  0.36556048  0.46459715  0.82135136     0.08600
H1639       H  0.33451141  0.38995540  0.76241767     0.09800
Cu1640     Cu  0.38960666  0.40870309  0.86616879     0.44200
Cu1641     Cu  0.36748664  0.34699039  0.81489464     0.42000
Cu1642     Cu  0.41233090  0.33208544  0.88372133     0.43900
N1643       N  0.39529539  0.39246822  0.90992305    -0.33800
N1644       N  0.40184732  0.36373420  0.91689642    -0.28100
C1645       C  0.39949624  0.35974887  0.94708946    -0.04200
C1646       C  0.39105902  0.38741480  0.95938739     0.08000
C1647       C  0.38899625  0.40761039  0.93521980     0.01800
H1648       H  0.40406050  0.33851350  0.95904668     0.09500
H1649       H  0.38230315  0.43135045  0.93578985     0.08600
N1650       N  0.41731667  0.30945437  0.84257551    -0.35300
N1651       N  0.39846570  0.31295832  0.81850112    -0.27400
C1652       C  0.40929312  0.29895987  0.79436464    -0.02700
C1653       C  0.43655720  0.28653534  0.80351904     0.05900
C1654       C  0.44118345  0.29350913  0.83415623     0.04000
H1655       H  0.40018348  0.30134752  0.77120973     0.09100
H1656       H  0.46130548  0.28942491  0.84858122     0.08000
N1657       N  0.64936242  0.37696754  0.80763278    -0.26400
N1658       N  0.65282787  0.39400089  0.83258608    -0.34300
C1659       C  0.67002061  0.41953213  0.82686052     0.01900
C1660       C  0.67818453  0.41814274  0.79701660     0.07900
C1661       C  0.66495154  0.39086600  0.78545077    -0.05200
H1662       H  0.67651138  0.43737369  0.84331590     0.08600
H1663       H  0.66595342  0.38218025  0.76252599     0.09800
Cu1664     Cu  0.63481832  0.38089065  0.87365056     0.44200
Cu1665     Cu  0.62154077  0.33657654  0.80502007     0.42000
Cu1666     Cu  0.58348220  0.31277126  0.87393963     0.43900
N1667       N  0.61495421  0.36408281  0.91255244    -0.33800
N1668       N  0.59542894  0.34011527  0.91289245    -0.28100
C1669       C  0.58513720  0.33744106  0.94123511    -0.04200
C1670       C  0.59939277  0.36030956  0.95958219     0.08000
C1671       C  0.61795504  0.37676603  0.94051226     0.01800
H1672       H  0.56811981  0.32047140  0.94792455     0.09500
H1673       H  0.63139538  0.39754107  0.94608032     0.08600
N1674       N  0.57626055  0.29014403  0.83140390    -0.35300
N1675       N  0.59000600  0.29912587  0.80666568    -0.27400
C1676       C  0.57835173  0.28233050  0.78278272    -0.02700
C1677       C  0.55650937  0.26107971  0.79255250     0.05900
C1678       C  0.55574377  0.26712935  0.82362874     0.04000
H1679       H  0.58383154  0.28678985  0.75947432     0.09100
H1680       H  0.53967696  0.25709747  0.83896416     0.08000
C1681       C  0.48700000  0.21713223  0.73512432     0.30900
C1682       C  0.53199404  0.24410834  0.77223850     0.30900
C1683       C  0.47989930  0.24901126  0.74763316    -0.05300
C1684       C  0.49575930  0.19918827  0.76431048    -0.06100
C1685       C  0.51803032  0.22212570  0.72090039    -0.06000
C1686       C  0.50330164  0.26288213  0.76679797    -0.05300
C1687       C  0.51879776  0.21293740  0.78329156    -0.06100
C1688       C  0.54122492  0.23627040  0.73991567    -0.06000
C1689       C  0.48908557  0.27926527  0.78849232    -0.31400
N1690       N  0.45868426  0.27615382  0.78354018     0.15100
C1691       C  0.45276758  0.25774793  0.75910850    -0.31400
H1692       H  0.43043054  0.24765080  0.75297263     0.17100
C1693       C  0.52430672  0.19293798  0.80710790    -0.30400
N1694       N  0.50558662  0.16746804  0.80292219     0.13800
C1695       C  0.48794964  0.17114343  0.77697335    -0.30400
C1696       C  0.56843811  0.22511723  0.73077746    -0.30600
N1697       N  0.56280286  0.20539429  0.70721893     0.14300
H1698       H  0.59044449  0.22838285  0.74273488     0.17000
C1699       C  0.53237261  0.20280762  0.70154991    -0.30700
H1700       H  0.52131938  0.18614606  0.68599641     0.17000
H1701       H  0.47083190  0.15461061  0.76798721     0.17000
H1702       H  0.50005664  0.28969504  0.80867441     0.17100
H1703       H  0.54125965  0.19617566  0.82565946     0.17000
N1704       N  0.50934606  0.06341517  0.88220191    -0.02600
C1705       C  0.53342797  0.04480913  0.88470458     0.00000
C1706       C  0.52494784  0.01648484  0.89656068    -0.22900
C1707       C  0.49424387  0.01756933  0.90107957    -0.23100
C1708       C  0.48533809  0.04659273  0.89206155    -0.00100
H1709       H  0.53919224  0.99689218  0.90044261     0.13700
H1710       H  0.47958098  0.99850524  0.90794757     0.13700
N1711       N  0.69743431  0.76261888  0.53656931    -0.26400
N1712       N  0.70631591  0.78882436  0.52376859    -0.34300
C1713       C  0.72252627  0.78193899  0.49957127     0.01900
C1714       C  0.72428617  0.74995966  0.49752066     0.07900
C1715       C  0.70751323  0.73874194  0.52110961    -0.05200
H1716       H  0.73305052  0.79890853  0.48500801     0.08600
H1717       H  0.70279136  0.71488195  0.52687490     0.09800
Cu1718     Cu  0.69682162  0.83239089  0.54179958     0.44200
Cu1719     Cu  0.67394071  0.75887188  0.57586429     0.42000
Cu1720     Cu  0.66893505  0.82722587  0.61865146     0.43900
N1721       N  0.68606826  0.87079054  0.56822885    -0.33800
N1722       N  0.67846239  0.86837470  0.59686626    -0.28100
C1723       C  0.67233990  0.89636457  0.60753151    -0.04200
C1724       C  0.67566493  0.91766688  0.58455533     0.08000
C1725       C  0.68415726  0.90066956  0.55982037     0.01800
H1726       H  0.66338114  0.90040887  0.62954045     0.09500
H1727       H  0.68755022  0.90923883  0.53710294     0.08600
N1728       N  0.65024412  0.78535914  0.63215660    -0.35300
N1729       N  0.65219770  0.75976568  0.61625707    -0.27400
C1730       C  0.63550002  0.73702817  0.62891218    -0.02700
C1731       C  0.62259538  0.74917051  0.65390854     0.05900
C1732       C  0.63186149  0.77987719  0.65517547     0.04000
H1733       H  0.63145158  0.71415504  0.61947011     0.09100
H1734       H  0.62452935  0.79722338  0.67053495     0.08000
C1735       C  0.74134688  0.73132660  0.47503741     0.30900
C1736       C  0.77134215  0.69922273  0.43301095     0.30900
C1737       C  0.72723551  0.73110807  0.44267402    -0.05300
C1738       C  0.77401403  0.74250377  0.47028541    -0.06100
C1739       C  0.74512696  0.69678756  0.48214067    -0.06000
C1740       C  0.74226065  0.71470649  0.42117353    -0.05300
C1741       C  0.78968291  0.72655002  0.44883224    -0.06100
C1742       C  0.76032661  0.68028709  0.46018874    -0.06000
C1743       C  0.72944576  0.72224545  0.39299226    -0.31400
N1744       N  0.70741838  0.74266229  0.39720874     0.15100
C1745       C  0.70605809  0.74841056  0.42730934    -0.31400
H1746       H  0.69182035  0.76524036  0.43706920     0.17100
C1747       C  0.81828409  0.74091009  0.44859933    -0.30400
N1748       N  0.82001345  0.76440453  0.46926613     0.13800
C1749       C  0.79308611  0.76528530  0.48269062    -0.30400
C1750       C  0.77544814  0.65721893  0.47552380    -0.30600
N1751       N  0.77030872  0.65873651  0.50544991     0.14300
H1752       H  0.79234853  0.64310500  0.46599790     0.17000
C1753       C  0.75268887  0.68303586  0.50980718    -0.30700
H1754       H  0.74960910  0.69286621  0.53193147     0.17000
H1755       H  0.78819050  0.78043643  0.50112267     0.17000
H1756       H  0.73696339  0.71527929  0.37110937     0.17100
H1757       H  0.83666951  0.73486299  0.43468100     0.17000
N1758       N  0.92802414  0.83453724  0.50254696    -0.02600
C1759       C  0.94497080  0.83816328  0.52896338     0.00000
C1760       C  0.97344045  0.85071379  0.52315267    -0.22900
C1761       C  0.97386744  0.85488830  0.49204155    -0.23100
C1762       C  0.94557604  0.84490718  0.48001498    -0.00100
H1763       H  0.99202765  0.85580573  0.53965965     0.13700
H1764       H  0.99281784  0.86388362  0.47957917     0.13700
N1765       N  0.80375015  0.62645538  0.57416168    -0.26400
N1766       N  0.82186088  0.61616111  0.55374078    -0.34300
C1767       C  0.81199525  0.62521613  0.52590502     0.01900
C1768       C  0.78635555  0.64208530  0.52904469     0.07900
C1769       C  0.78161475  0.64251600  0.55988927    -0.05200
H1770       H  0.82361366  0.62111676  0.50532765     0.08600
H1771       H  0.76394622  0.65403145  0.57116577     0.09800
Cu1772     Cu  0.86167416  0.59460001  0.56500434     0.44200
Cu1773     Cu  0.81115563  0.61739880  0.62010386     0.42000
Cu1774     Cu  0.88320300  0.57972361  0.64249441     0.43900
N1775       N  0.90569996  0.58646054  0.57977238    -0.33800
N1776       N  0.91492409  0.58259204  0.60850682    -0.28100
C1777       C  0.94567749  0.58156711  0.61009653    -0.04200
C1778       C  0.95587107  0.58484954  0.58078656     0.08000
C1779       C  0.92978046  0.58775527  0.56238763     0.01800
H1780       H  0.95939189  0.57854821  0.63090271     0.09500
H1781       H  0.92837590  0.59170260  0.53809040     0.08600
N1782       N  0.84375001  0.57802478  0.66749403    -0.35300
N1783       N  0.81892288  0.59349526  0.66036216    -0.27400
C1784       C  0.79690358  0.58499054  0.67909797    -0.02700
C1785       C  0.80810479  0.56279070  0.69864370     0.05900
C1786       C  0.83774314  0.55867194  0.69060546     0.04000
H1787       H  0.77343942  0.59154480  0.67613819     0.09100
H1788       H  0.85294292  0.54128951  0.69928960     0.08000
C1789       C  0.73940646  0.51469347  0.77612671     0.30900
C1790       C  0.76958644  0.46752181  0.75201652     0.30900
C1791       C  0.75515653  0.52208943  0.74639772    -0.05300
C1792       C  0.76559492  0.50186603  0.79674801    -0.06100
C1793       C  0.71972974  0.48519304  0.76840706    -0.06000
C1794       C  0.77060654  0.49786882  0.73429140    -0.05300
C1795       C  0.78057062  0.47758122  0.78412291    -0.06100
C1796       C  0.73524325  0.46081690  0.75559341    -0.06000
C1797       C  0.79198170  0.51065467  0.71569479    -0.31400
N1798       N  0.78974094  0.54163270  0.71560384     0.15100
C1799       C  0.76785065  0.54901701  0.73463336    -0.31400
H1800       H  0.76328436  0.57232271  0.74131737     0.17100
C1801       C  0.80372868  0.46966289  0.80417296    -0.30400
N1802       N  0.80383775  0.48839846  0.82878501     0.13800
C1803       C  0.78063298  0.50826256  0.82466203    -0.30400
C1804       C  0.72039297  0.43371253  0.76439196    -0.30600
N1805       N  0.69667141  0.44040896  0.78125889     0.14300
H1806       H  0.72873526  0.41070520  0.76224771     0.17000
C1807       C  0.69674877  0.47141888  0.78474563    -0.30700
H1808       H  0.68300190  0.48305172  0.80053755     0.17000
H1809       H  0.77615050  0.52685050  0.83993389     0.17000
H1810       H  0.80912254  0.49848626  0.70428693     0.17100
H1811       H  0.82025934  0.45228792  0.80064522     0.17000
N1812       N  0.90248623  0.47617268  0.91602628    -0.02600
C1813       C  0.91287491  0.44848154  0.92509694     0.00000
C1814       C  0.94159699  0.45210779  0.93925860    -0.22900
C1815       C  0.94913626  0.48321084  0.93885129    -0.23100
C1816       C  0.92475025  0.49730458  0.92437454    -0.00100
H1817       H  0.95593624  0.43399198  0.94794469     0.13700
H1818       H  0.97026714  0.49422134  0.94758634     0.13700
N1819       N  0.61119221  0.60622492  0.87843633    -0.26400
N1820       N  0.63349440  0.58712777  0.88411309    -0.34300
C1821       C  0.63059922  0.57463815  0.91178982     0.01900
C1822       C  0.60497400  0.58612613  0.92376597     0.07900
C1823       C  0.59313486  0.60610586  0.90217637    -0.05200
H1824       H  0.64594337  0.55836297  0.92235212     0.08600
H1825       H  0.57334536  0.61997648  0.90381005     0.09800
Cu1826     Cu  0.66545395  0.57780000  0.85304743     0.44200
Cu1827     Cu  0.60753959  0.63172397  0.83888966     0.42000
Cu1828     Cu  0.65531723  0.61239531  0.77714599     0.43900
N1829       N  0.69076304  0.56631291  0.81683844    -0.33800
N1830       N  0.68702931  0.57788140  0.78910110    -0.28100
C1831       C  0.70510680  0.56264767  0.77082209    -0.04200
C1832       C  0.72141039  0.54102576  0.78796422     0.08000
C1833       C  0.71105936  0.54381513  0.81688856     0.01800
H1834       H  0.70526572  0.56594809  0.74647246     0.09500
H1835       H  0.71652721  0.52926070  0.83625058     0.08600
N1836       N  0.62166707  0.64647020  0.77384314    -0.35300
N1837       N  0.60556887  0.65360478  0.79721091    -0.27400
C1838       C  0.58541605  0.67488639  0.78873601    -0.02700
C1839       C  0.58823102  0.68183571  0.75833481     0.05900
C1840       C  0.61153499  0.66317553  0.74956018     0.04000
H1841       H  0.56859409  0.68346205  0.80334822     0.09100
H1842       H  0.61937581  0.66058171  0.72688618     0.08000
C1843       C  0.52482282  0.73506722  0.70596041     0.30900
C1844       C  0.56628305  0.70133719  0.73910718     0.30900
C1845       C  0.55353059  0.72697751  0.68969398    -0.05300
C1846       C  0.53809576  0.74994497  0.73555231    -0.06100
C1847       C  0.51274595  0.70339294  0.71717171    -0.06000
C1848       C  0.57485618  0.70956179  0.70657763    -0.05300
C1849       C  0.55925768  0.73292413  0.75246747    -0.06100
C1850       C  0.53422263  0.68613316  0.73422907    -0.06000
C1851       C  0.60270258  0.71575444  0.69428030    -0.31400
N1852       N  0.59870560  0.73494720  0.67028351     0.15100
C1853       C  0.56921268  0.74273366  0.66785978    -0.31400
H1854       H  0.56048162  0.76081521  0.65321766     0.17100
C1855       C  0.56577190  0.74864034  0.77938421    -0.30400
N1856       N  0.54915140  0.77447794  0.77905335     0.13800
C1857       C  0.53232120  0.77551241  0.75237433    -0.30400
C1858       C  0.51802498  0.66789161  0.75395797    -0.30600
N1859       N  0.48801041  0.67277511  0.74940657     0.14300
H1860       H  0.52757225  0.65405665  0.77226792     0.17000
C1861       C  0.48453750  0.69475932  0.72776885    -0.30700
H1862       H  0.46345888  0.70634540  0.72285596     0.17000
H1863       H  0.51604533  0.79292376  0.74636893     0.17000
H1864       H  0.62475317  0.70967768  0.70403784     0.17100
H1865       H  0.58092002  0.74158179  0.79804552     0.17000
N1866       N  0.54210618  0.86495081  0.87168456    -0.02600
C1867       C  0.51766925  0.86919593  0.88844413     0.00000
C1868       C  0.52623822  0.88502337  0.91487071    -0.22900
C1869       C  0.55731224  0.89031351  0.91449580    -0.23100
C1870       C  0.56638287  0.87769236  0.88776590    -0.00100
H1871       H  0.51175113  0.89092838  0.93294930     0.13700
H1872       H  0.57196014  0.90010369  0.93278375     0.13700
C1873       C  0.55170908  0.82840032  0.79569894    -0.11400
C1874       C  0.54845350  0.79696633  0.80290945     0.05600
C1875       C  0.54301444  0.78826496  0.83308301    -0.06700
C1876       C  0.54080383  0.81097832  0.85532772    -0.07400
C1877       C  0.54379518  0.84237053  0.84799865    -0.02000
C1878       C  0.54951411  0.85109927  0.81796525     0.04800
N1879       N  0.55203432  0.88284460  0.80945716     0.67300
H1880       H  0.55571584  0.83527424  0.77256082     0.16200
H1881       H  0.53648668  0.80421641  0.87842934     0.15900
N1882       N  0.53793136  0.75664341  0.84110549     0.75000
O1883       O  0.57775620  0.89434329  0.80336061    -0.38400
O1884       O  0.52840722  0.89618378  0.79983729    -0.38400
O1885       O  0.55831156  0.74288615  0.85648401    -0.39100
O1886       O  0.51121335  0.74496385  0.83893061    -0.39100
C1887       C  0.85826510  0.49012429  0.84268707    -0.11400
C1888       C  0.82820198  0.48941147  0.85192198     0.05600
C1889       C  0.82292846  0.48574990  0.88309157    -0.06700
C1890       C  0.84760934  0.48149420  0.90411926    -0.07400
C1891       C  0.87745972  0.48113093  0.89444918    -0.02000
C1892       C  0.88274154  0.48595308  0.86354950     0.04800
N1893       N  0.91277122  0.48511619  0.85279685     0.67300
H1894       H  0.86260237  0.49286058  0.81884265     0.16200
H1895       H  0.84354187  0.47808590  0.92793579     0.15900
N1896       N  0.79272789  0.48471476  0.89351205     0.75000
O1897       O  0.92233649  0.45986408  0.84365901    -0.38400
O1898       O  0.92639642  0.51000768  0.84573517    -0.38400
O1899       O  0.77973212  0.45888996  0.89836850    -0.39100
O1900       O  0.78245269  0.50869035  0.90478058    -0.39100
C1901       C  0.87476414  0.76793696  0.48248504    -0.11400
C1902       C  0.84694442  0.78256174  0.47849223     0.05600
C1903       C  0.84589528  0.81445797  0.48506247    -0.06700
C1904       C  0.87261369  0.83101985  0.49462712    -0.07400
C1905       C  0.90034022  0.81635868  0.49783808    -0.02000
C1906       C  0.90129895  0.78453564  0.49217057     0.04800
N1907       N  0.92927554  0.76892358  0.49562373     0.67300
H1908       H  0.87581906  0.74344373  0.47829706     0.16200
H1909       H  0.87203510  0.85562735  0.49840829     0.15900
N1910       N  0.81840733  0.83078815  0.48048816     0.75000
O1911       O  0.93583625  0.75532945  0.52034344    -0.38400
O1912       O  0.94346573  0.76275246  0.47234718    -0.38400
O1913       O  0.80502013  0.83983941  0.50333163    -0.39100
O1914       O  0.81234235  0.84289933  0.45490252    -0.39100
C1915       C  0.50290196  0.14507719  0.85404684    -0.11400
C1916       C  0.50507113  0.14095479  0.82262790     0.05600
C1917       C  0.50760900  0.11086886  0.81115746    -0.06700
C1918       C  0.50888636  0.08578515  0.83115701    -0.07400
C1919       C  0.50724980  0.08995587  0.86255436    -0.02000
C1920       C  0.50360021  0.11982505  0.87402358     0.04800
N1921       N  0.50125103  0.12504535  0.90581912     0.67300
H1922       H  0.50068220  0.16803612  0.86302411     0.16200
H1923       H  0.51139902  0.06283984  0.82225275     0.15900
N1924       N  0.51030040  0.10549671  0.77944375     0.75000
O1925       O  0.52515146  0.13127448  0.92205851    -0.38400
O1926       O  0.47588650  0.13204646  0.91544560    -0.40800
O1927       O  0.53643144  0.10314531  0.76934049    -0.39100
O1928       O  0.48728146  0.09554870  0.76362713    -0.39100
C1929       C  0.20885360  0.48240157  0.85087490    -0.11400
C1930       C  0.19905670  0.48370314  0.82010932     0.05600
C1931       C  0.16803511  0.47739089  0.81162048    -0.06700
C1932       C  0.14759407  0.46970296  0.83384198    -0.07400
C1933       C  0.15737737  0.46867509  0.86449366    -0.02000
C1934       C  0.18819782  0.47499079  0.87310003     0.04800
N1935       N  0.19880205  0.47377521  0.90426281     0.67300
H1936       H  0.23264312  0.48673333  0.85752671     0.16200
H1937       H  0.12365449  0.46600137  0.82743515     0.15900
N1938       N  0.15652349  0.48078162  0.78088648     0.75000
O1939       O  0.20974720  0.44916000  0.91462219    -0.38400
O1940       O  0.20409284  0.49860041  0.91878236    -0.38400
O1941       O  0.14837249  0.45703072  0.76562257    -0.39100
O1942       O  0.14729858  0.50669321  0.77210065    -0.39100
C1943       C  0.16029030  0.81470775  0.47492041    -0.11400
C1944       C  0.19176760  0.82153926  0.47653344     0.05600
C1945       C  0.20239429  0.85259784  0.47551137    -0.06700
C1946       C  0.18156545  0.87607950  0.47369888    -0.07400
C1947       C  0.15020327  0.86928082  0.47272384    -0.02000
C1948       C  0.13941496  0.83833406  0.47275907     0.04800
N1949       N  0.10755352  0.83049379  0.46999986     0.67300
H1950       H  0.15199035  0.79092155  0.47505948     0.16200
H1951       H  0.18979977  0.89990477  0.47403917     0.15900
N1952       N  0.23416103  0.86082318  0.47829010     0.75000
O1953       O  0.09500691  0.82647273  0.44381911    -0.38400
O1954       O  0.09469407  0.81902266  0.49256595    -0.38400
O1955       O  0.24734670  0.87091682  0.45530274    -0.39100
O1956       O  0.24674773  0.86519190  0.50441117    -0.39100
C1957       C  0.48534826  0.83093009  0.17228662    -0.11400
C1958       C  0.48675460  0.80085620  0.16113405     0.05600
C1959       C  0.49104365  0.79606080  0.13000950    -0.06700
C1960       C  0.49460648  0.82149734  0.11072597    -0.07400
C1961       C  0.49346128  0.85145043  0.12214057    -0.02000
C1962       C  0.48843518  0.85618178  0.15300635     0.04800
N1963       N  0.48619832  0.88654323  0.16496663     0.67300
H1964       H  0.48162171  0.83470429  0.19607506     0.16200
H1965       H  0.49846986  0.81801466  0.08693054     0.15900
N1966       N  0.49308895  0.76571623  0.11798088     0.75000
O1967       O  0.46027820  0.89783302  0.16637297    -0.38400
O1968       O  0.50848588  0.89854972  0.18045070    -0.38400
O1969       O  0.47071974  0.75391546  0.10245618    -0.39100
O1970       O  0.51892266  0.75425439  0.11652128    -0.39100
C1971       C  0.80410528  0.46023086  0.16273511    -0.11400
C1972       C  0.81648366  0.46446088  0.19251803     0.05600
C1973       C  0.84809288  0.47131177  0.19709498    -0.06700
C1974       C  0.86652743  0.47317104  0.17201851    -0.07400
C1975       C  0.85399571  0.46808941  0.14251244    -0.02000
C1976       C  0.82248758  0.46210196  0.13789873     0.04800
N1977       N  0.80874772  0.45844615  0.10795786     0.67300
H1978       H  0.77987005  0.45586447  0.15867715     0.16200
H1979       H  0.89069539  0.47837670  0.17550250     0.15900
N1980       N  0.86203907  0.47543435  0.22689751     0.75000
O1981       O  0.80324656  0.43164266  0.09752300    -0.38400
O1982       O  0.79580404  0.48097697  0.09534960    -0.38400
O1983       O  0.87454136  0.45288010  0.23992054    -0.39100
O1984       O  0.86900411  0.50240271  0.23619399    -0.39100
C1985       C  0.86832642  0.15615966  0.53397703    -0.11400
C1986       C  0.83671082  0.15218056  0.53588313     0.05600
C1987       C  0.82321719  0.12212734  0.53395677    -0.06700
C1988       C  0.84157497  0.09686425  0.53083246    -0.07400
C1989       C  0.87313922  0.10089085  0.52911623    -0.02000
C1990       C  0.88666411  0.13083242  0.53050220     0.04800
N1991       N  0.91869148  0.13603059  0.52775944     0.67300
H1992       H  0.87877355  0.17919823  0.53515645     0.16200
H1993       H  0.83118933  0.07381632  0.52941731     0.15900
N1994       N  0.79093362  0.11691717  0.53355358     0.75000
O1995       O  0.92887761  0.13817709  0.50156891    -0.38400
O1996       O  0.93455455  0.14743277  0.54994294    -0.38400
O1997       O  0.77602043  0.11548141  0.50828920    -0.39100
O1998       O  0.77908953  0.10565013  0.55680355    -0.39100
C1999       C  0.14267042  0.47812880  0.12423543    -0.11400
C2000       C  0.11237522  0.48002758  0.13219103     0.05600
C2001       C  0.10563835  0.47953463  0.16307322    -0.06700
C2002       C  0.12927941  0.47732465  0.18547926    -0.07400
C2003       C  0.15965296  0.47522451  0.17757283    -0.02000
C2004       C  0.16629401  0.47573664  0.14655389     0.04800
N2005       N  0.19694054  0.47536644  0.13735476     0.67300
H2006       H  0.14789244  0.47869825  0.10048535     0.16200
H2007       H  0.12389699  0.47667538  0.20917553     0.15900
N2008       N  0.07495398  0.48031330  0.17205379     0.75000
O2009       O  0.20670038  0.45084166  0.12670758    -0.38400
O2010       O  0.21108165  0.50063108  0.13269748    -0.38400
O2011       O  0.06076721  0.45521914  0.17729388    -0.39100
O2012       O  0.06569423  0.50491542  0.18296941    -0.39100
C2013       C  0.49595716  0.19152107  0.15730064    -0.11400
C2014       C  0.49606469  0.17900524  0.18670872     0.05600
C2015       C  0.49497309  0.14658785  0.19026651    -0.06700
C2016       C  0.49463610  0.12751145  0.16450199    -0.07400
C2017       C  0.49507683  0.14030828  0.13529520    -0.02000
C2018       C  0.49528567  0.17250387  0.13173549     0.04800
N2019       N  0.49479841  0.18620429  0.10220994     0.67300
H2020       H  0.49634706  0.21628026  0.15422441     0.16200
H2021       H  0.49426222  0.10270858  0.16720192     0.15900
N2022       N  0.49555434  0.13270213  0.21972453     0.75000
O2023       O  0.46966106  0.19360929  0.08967404    -0.38400
O2024       O  0.51922203  0.19744267  0.09230341    -0.38400
O2025       O  0.47131086  0.12065686  0.22928501    -0.39100
O2026       O  0.52078609  0.12576075  0.23237346    -0.39100
C2027       C  0.17456905  0.10116924  0.49317831    -0.11400
C2028       C  0.14670501  0.11458833  0.49798780     0.05600
C2029       C  0.14658597  0.14464970  0.50984463    -0.06700
C2030       C  0.17409866  0.16091757  0.51647285    -0.07400
C2031       C  0.20207426  0.14806753  0.51082838    -0.02000
C2032       C  0.20225826  0.11775144  0.49938156     0.04800
N2033       N  0.23010493  0.10423203  0.49226111     0.67300
H2034       H  0.17469393  0.07801184  0.48412955     0.16200
H2035       H  0.17368101  0.18441046  0.52462738     0.15900
N2036       N  0.11863872  0.15968344  0.51336724     0.75000
O2037       O  0.24305073  0.08673672  0.51144366    -0.38400
O2038       O  0.23740509  0.10358377  0.46493590    -0.38400
O2039       O  0.11018684  0.16498929  0.53973779    -0.39100
O2040       O  0.10665480  0.17388004  0.49101355    -0.39100
C2041       C  0.00704203  0.35050342  0.37501887    -0.11400
C2042       C  0.01003242  0.33214274  0.40110149     0.05600
C2043       C  0.01104984  0.29994494  0.39827617    -0.06700
C2044       C  0.00981952  0.28656958  0.36950894    -0.07400
C2045       C  0.00742479  0.30477736  0.34318436    -0.02000
C2046       C  0.00561594  0.33706732  0.34602925     0.04800
N2047       N  0.00326650  0.35654370  0.31987567     0.67300
H2048       H  0.00612781  0.37527863  0.37728401     0.16200
H2049       H  0.01023688  0.26171863  0.36771638     0.15900
N2050       N  0.01249803  0.28046320  0.42446280     0.75000
O2051       O  0.97741943  0.36554556  0.31070171    -0.38400
O2052       O  0.02682129  0.37088393  0.31139269    -0.38400
O2053       O  0.98813682  0.26849940  0.43382862    -0.39100
O2054       O  0.03756453  0.26911214  0.43287675    -0.39100
C2055       C  0.63133568  0.31430422  0.01889022    -0.11400
C2056       C  0.63713291  0.34611036  0.01727633     0.05600
C2057       C  0.66726978  0.35787926  0.01645859    -0.06700
C2058       C  0.69126807  0.33751114  0.01808823    -0.07400
C2059       C  0.68554144  0.30552168  0.02018091    -0.02000
C2060       C  0.65508303  0.29390316  0.01999914     0.04800
N2061       N  0.64762431  0.26157230  0.01913769     0.67300
H2062       H  0.60803283  0.30536204  0.01879565     0.16200
H2063       H  0.71447683  0.34663903  0.01792910     0.15900
N2064       N  0.67385970  0.39021185  0.01363301     0.75000
O2065       O  0.63766920  0.24864993  0.04253118    -0.38400
O2066       O  0.64261930  0.24861020  0.99364610    -0.38400
O2067       O  0.68435524  0.40516009  0.03663400    -0.39100
O2068       O  0.67730650  0.40144687  0.98752844    -0.39100
C2069       C  0.99982876  0.32071829  0.72234312    -0.11400
C2070       C  0.99491603  0.29239929  0.70707365     0.05600
C2071       C  0.99328171  0.29229472  0.67493736    -0.06700
C2072       C  0.99818161  0.32006071  0.65898183    -0.07400
C2073       C  0.00464838  0.34784613  0.67465293    -0.02000
C2074       C  0.00487477  0.34812237  0.70652167     0.04800
N2075       N  0.01076874  0.37610469  0.72317984     0.67300
H2076       H  0.00054393  0.32141667  0.74693712     0.16200
H2077       H  0.99709530  0.32000754  0.63437756     0.15900
N2078       N  0.98772215  0.26433162  0.65821325     0.75000
O2079       O  0.98868266  0.39120593  0.73149232    -0.38400
O2080       O  0.03693857  0.38151309  0.73553947    -0.38400
O2081       O  0.96152365  0.25856610  0.64605390    -0.39100
O2082       O  0.01000769  0.24985285  0.64940934    -0.39100
C2083       C  0.73935674  0.96189257  0.66069973    -0.11400
C2084       C  0.72650011  0.95807790  0.68906660     0.05600
C2085       C  0.69445830  0.95770164  0.69041738    -0.06700
C2086       C  0.67616463  0.96165560  0.66366084    -0.07400
C2087       C  0.68927746  0.96568742  0.63551217    -0.02000
C2088       C  0.72111093  0.96574794  0.63412679     0.04800
N2089       N  0.73531776  0.97126785  0.60610401     0.67300
H2090       H  0.76384518  0.96231500  0.65926265     0.16200
H2091       H  0.65165583  0.96174639  0.66477229     0.15900
N2092       N  0.68019866  0.95494689  0.71875223     0.75000
O2093       O  0.74370319  0.99846282  0.59941063    -0.38400
O2094       O  0.74610485  0.94897399  0.59238031    -0.38400
O2095       O  0.67180431  0.97898506  0.73152427    -0.39100
O2096       O  0.66905113  0.92905507  0.72646923    -0.39100
C2097       C  0.02232874  0.65562781  0.64541313    -0.11400
C2098       C  0.02837076  0.63803197  0.67176804     0.05600
C2099       C  0.02891893  0.60563595  0.66919029    -0.06700
C2100       C  0.02287858  0.59158236  0.64064399    -0.07400
C2101       C  0.01591399  0.60940964  0.61475285    -0.02000
C2102       C  0.01567989  0.64162435  0.61730311     0.04800
N2103       N  0.00824829  0.66040298  0.59147467     0.67300
H2104       H  0.02214847  0.68051529  0.64678759     0.16200
H2105       H  0.02370533  0.56678835  0.63855304     0.15900
N2106       N  0.03452929  0.58668919  0.69528067     0.75000
O2107       O  0.98094366  0.66754094  0.58607811    -0.38400
O2108       O  0.02919610  0.67535001  0.57874748    -0.38400
O2109       O  0.01225011  0.57395254  0.70793569    -0.39100
O2110       O  0.06081493  0.57657117  0.70054079    -0.39100
C2111       C  0.65448536  0.66517437  0.97801635    -0.11400
C2112       C  0.68440005  0.65503436  0.98077873     0.05600
C2113       C  0.68921832  0.62302187  0.98317393    -0.06700
C2114       C  0.66430359  0.60202484  0.98384658    -0.07400
C2115       C  0.63456201  0.61234800  0.98174357    -0.02000
C2116       C  0.62963705  0.64407658  0.97839626     0.04800
N2117       N  0.59946247  0.65517743  0.97579512     0.67300
H2118       H  0.65044353  0.68959450  0.97655027     0.16200
H2119       H  0.66805876  0.57753733  0.98527244     0.15900
N2120       N  0.71920314  0.61139994  0.98344735     0.75000
O2121       O  0.58672990  0.66292773  0.99949298    -0.38400
O2122       O  0.58861870  0.66367262  0.95016265    -0.38400
O2123       O  0.73055609  0.59973428  0.00755305    -0.39100
O2124       O  0.73071906  0.60582767  0.95847263    -0.39100
C2125       C  0.37695053  0.97417896  0.68031946    -0.11400
C2126       C  0.34897036  0.98079892  0.66557571     0.05600
C2127       C  0.34759800  0.98735379  0.63420500    -0.06700
C2128       C  0.37431842  0.98789584  0.61829668    -0.07400
C2129       C  0.40237913  0.98204884  0.63326089    -0.02000
C2130       C  0.40359272  0.97473401  0.66449071     0.04800
N2131       N  0.43175035  0.96882553  0.68071455     0.67300
H2132       H  0.37805499  0.96869166  0.70433663     0.16200
H2133       H  0.37333843  0.99327067  0.59427973     0.15900
N2134       N  0.31962457  0.99494165  0.61855039     0.75000
O2135       O  0.44652776  0.99091790  0.69382083    -0.38400
O2136       O  0.43715080  0.94155831  0.68883670    -0.38400
O2137       O  0.31417860  0.02293489  0.61367142    -0.39100
O2138       O  0.30478726  0.97439815  0.60318638    -0.39100
C2139       C  0.35047474  0.66560505  0.99373229    -0.11400
C2140       C  0.32121376  0.65412307  0.99990188     0.05600
C2141       C  0.31575007  0.62197424  0.00204237    -0.06700
C2142       C  0.33955710  0.60198254  0.99854532    -0.07400
C2143       C  0.36873006  0.61346429  0.99233360    -0.02000
C2144       C  0.37416047  0.64551984  0.98970985     0.04800
N2145       N  0.40373233  0.65801906  0.98375683     0.67300
H2146       H  0.35473860  0.69021153  0.99153120     0.16200
H2147       H  0.33547250  0.57737648  0.00103300     0.15900
N2148       N  0.28643351  0.60936052  0.00882846     0.75000
O2149       O  0.40971116  0.66493909  0.95680992    -0.38400
O2150       O  0.42056735  0.66901226  0.00546264    -0.38400
O2151       O  0.26979507  0.59655300  0.98794255    -0.39100
O2152       O  0.28054351  0.60443548  0.03619859    -0.39100
C2153       C  0.30199918  0.32721695  0.99200414    -0.11400
C2154       C  0.31476968  0.29812110  0.99103593     0.05600
C2155       C  0.34644244  0.29571557  0.99700448    -0.06700
C2156       C  0.36462056  0.32226332  0.00406649    -0.07400
C2157       C  0.35174871  0.35128817  0.00470576    -0.02000
C2158       C  0.32017116  0.35366059  0.99880038     0.04800
N2159       N  0.30624827  0.38284679  0.99962030     0.67300
H2160       H  0.27770461  0.32930677  0.98783082     0.16200
H2161       H  0.38886368  0.32035225  0.00874230     0.15900
N2162       N  0.36065988  0.26683292  0.99442007     0.75000
O2163       O  0.30202107  0.39776551  0.97522336    -0.38400
O2164       O  0.29190221  0.38985355  0.02255135    -0.38400
O2165       O  0.37181501  0.25993987  0.96960015    -0.39100
O2166       O  0.36843190  0.25220278  0.01820903    -0.39100
C2167       C  0.01042664  0.63878988  0.36636524    -0.11400
C2168       C  0.00044495  0.61043014  0.35362258     0.05600
C2169       C  0.99492280  0.60793805  0.32194684    -0.06700
C2170       C  0.99968773  0.63365363  0.30343059    -0.07400
C2171       C  0.01006383  0.66200031  0.31600173    -0.02000
C2172       C  0.01524407  0.66462307  0.34779166     0.04800
N2173       N  0.02707883  0.69275634  0.36130075     0.67300
H2174       H  0.01510105  0.64058175  0.39068112     0.16200
H2175       H  0.99543267  0.63152371  0.27908044     0.15900
N2176       N  0.98566891  0.57909445  0.30819223     0.75000
O2177       O  0.00924967  0.71034309  0.37382291    -0.38400
O2178       O  0.05538905  0.69612698  0.36716376    -0.38400
O2179       O  0.95829655  0.57458491  0.29875060    -0.39100
O2180       O  0.00568065  0.56162663  0.29921277    -0.39100
C2181       C  0.67512073  0.96772905  0.36495377    -0.11400
C2182       C  0.66759034  0.97215916  0.33388255     0.05600
C2183       C  0.63685472  0.97525552  0.32415323    -0.06700
C2184       C  0.61417227  0.97260823  0.34515734    -0.07400
C2185       C  0.62152436  0.96706178  0.37596548    -0.02000
C2186       C  0.65233130  0.96510195  0.38607864     0.04800
N2187       N  0.66082717  0.95983980  0.41740288     0.67300
H2188       H  0.69870139  0.96551371  0.37263164     0.16200
H2189       H  0.59056743  0.97472095  0.33748922     0.15900
N2190       N  0.62844761  0.98238720  0.29324307     0.75000
O2191       O  0.66426074  0.93255868  0.42659938    -0.38400
O2192       O  0.67298338  0.98175950  0.43303332    -0.38400
O2193       O  0.61606482  0.96163203  0.27624859    -0.39100
O2194       O  0.62665525  0.01027686  0.28535301    -0.39100
C2195       C  0.38233972  0.00187628  0.31995593    -0.11400
C2196       C  0.37118588  0.00111285  0.34918627     0.05600
C2197       C  0.33998741  0.00488696  0.35274579    -0.06700
C2198       C  0.32018771  0.00797140  0.32712461    -0.07400
C2199       C  0.33098130  0.00779819  0.29765086    -0.02000
C2200       C  0.36254110  0.00543550  0.29417929     0.04800
N2201       N  0.37467335  0.00523038  0.26474168     0.67300
H2202       H  0.40640815  0.99929820  0.31722525     0.16200
H2203       H  0.29612556  0.01020354  0.33017995     0.15900
N2204       N  0.32812558  0.00567215  0.38229905     0.75000
O2205       O  0.38537575  0.03009635  0.25399887    -0.38400
O2206       O  0.38170432  0.97991765  0.25344440    -0.38400
O2207       O  0.32398067  0.03140441  0.39443294    -0.39100
O2208       O  0.31557225  0.98161761  0.39285700    -0.39100
loop_ 
_geom_bond_atom_site_label_1 
_geom_bond_atom_site_label_2 
_geom_bond_distance 
_geom_bond_site_symmetry_2 
_ccdc_geom_bond_type 
N1            N2   1.323       .  A
N1            C5   1.350       .  A
N1           Cu9   2.093       .  S
N2            C3   1.348       .  A
N2           Cu8   2.093       .  S
C3            C4   1.385       .  A
C3            H6   1.082       .  S
C4            C5   1.385       .  A
C4         C1115   1.478       .  S
C5            H7   1.082       .  S
Cu8          N11   2.093       .  S
Cu9          N19   2.093       .  S
Cu10         N12   2.086       .  S
Cu10         N18   2.086       .  S
N11          N12   1.322       .  A
N11          C15   1.347       .  A
N12          C13   1.347       .  A
C13          C14   1.389       .  A
C13          H16   1.079       .  S
C14          C15   1.390       .  A
C14         C853   1.525       .  S
C15          H17   1.082       .  S
N18          N19   1.325       .  A
N18          C22   1.349       .  A
N19          C20   1.348       .  A
C20          C21   1.383       .  A
C20          H23   1.082       .  S
C21          C22   1.382       .  A
C21         N287   1.437       .  S
C22          H24   1.082       .  S
N25          N26   1.321       .  A
N25          C29   1.344       .  A
N25         Cu33   2.064       .  S
N26          C27   1.344       .  A
N26         Cu32   2.057       .  S
C27          C28   1.378       .  A
C27          H30   1.081       .  S
C28          C29   1.379       .  A
C28         N916   1.428       .  S
C29          H31   1.082       .  S
Cu32         N35   2.056       .  S
Cu33         N43   2.065       .  S
Cu34         N36   2.105       .  S
Cu34         N42   2.106       .  S
N35          N36   1.323       .  A
N35          C39   1.342       .  A
N36          C37   1.351       .  A
C37          C38   1.390       .  A
C37          H40   1.082       .  S
C38          C39   1.376       .  A
C38        C1214   1.475       .  S
C39          H41   1.080       .  S
N42          N43   1.326       .  A
N42          C46   1.349       .  A
N43          C44   1.345       .  A
C44          C45   1.376       .  A
C44          H47   1.082       .  S
C45          C46   1.387       .  A
C45         N467   1.435       .  S
C46          H48   1.082       .  S
N49          N50   1.322       .  A
N49          C53   1.343       .  A
N49         Cu57   2.059       .  S
N50          C51   1.352       .  A
N50         Cu56   2.108       .  S
C51          C52   1.390       .  A
C51          H54   1.080       .  S
C52          C53   1.378       .  A
C52        C1217   1.477       .  S
C53          H55   1.082       .  S
Cu56         N59   2.109       .  S
Cu57         N67   2.059       .  S
Cu58         N60   2.089       .  S
Cu58         N66   2.087       .  S
N59          N60   1.325       .  A
N59          C63   1.351       .  A
N60          C61   1.345       .  A
C61          C62   1.387       .  A
C61          H64   1.080       .  S
C62          C63   1.392       .  A
C62         C325   1.527       .  S
C63          H65   1.082       .  S
N66          N67   1.322       .  A
N66          C70   1.351       .  A
N67          C68   1.341       .  A
C68          C69   1.378       .  A
C68          H71   1.082       .  S
C69          C70   1.386       .  A
C69         N521   1.435       .  S
C70          H72   1.081       .  S
N73          N74   1.322       .  A
N73          C77   1.350       .  A
N73         Cu81   2.089       .  S
N74          C75   1.345       .  A
N74         Cu80   2.077       .  S
C75          C76   1.382       .  A
C75          H78   1.082       .  S
C76          C77   1.386       .  A
C76        C1112   1.478       .  S
C77          H79   1.082       .  S
Cu80         N83   2.077       .  S
Cu81         N91   2.090       .  S
Cu82         N84   2.118       .  S
Cu82         N90   2.120       .  S
N83          N84   1.322       .  A
N83          C87   1.343       .  A
N84          C85   1.356       .  A
C85          C86   1.396       .  A
C85          H88   1.081       .  S
C86          C87   1.385       .  A
C86         C452   1.528       .  S
C87          H89   1.082       .  S
N90          N91   1.325       .  A
N90          C94   1.351       .  A
N91          C92   1.349       .  A
C92          C93   1.387       .  A
C92          H95   1.080       .  S
C93          C94   1.393       .  A
C93         C169   1.525       .  S
C94          H96   1.082       .  S
N97          N98   1.322       .  A
N97         C101   1.344       .  A
N97        Cu105   2.056       .  S
N98          C99   1.340       .  A
N98        Cu104   2.045       .  S
C99         C100   1.376       .  A
C99         H102   1.082       .  S
C100        C101   1.378       .  A
C100        N568   1.425       .  S
C101        H103   1.082       .  S
Cu104       N107   2.045       .  S
Cu105       N115   2.058       .  S
Cu106       N108   2.074       .  S
Cu106       N114   2.075       .  S
N107        N108   1.321       .  A
N107        C111   1.340       .  A
N108        C109   1.344       .  A
C109        C110   1.383       .  A
C109        H112   1.082       .  S
C110        C111   1.376       .  A
C110       C1013   1.463       .  S
C111        H113   1.082       .  S
N114        N115   1.325       .  A
N114        C118   1.344       .  A
N115        C116   1.343       .  A
C116        C117   1.376       .  A
C116        H119   1.082       .  S
C117        C118   1.381       .  A
C117        N808   1.430       .  S
C118        H120   1.082       .  S
N121        N122   1.322       .  A
N121        C125   1.349       .  A
N121       Cu129   2.084       .  S
N122        C123   1.339       .  A
N122       Cu128   2.056       .  S
C123        C124   1.376       .  A
C123        H126   1.082       .  S
C124        C125   1.385       .  A
C124       C1010   1.467       .  S
C125        H127   1.082       .  S
Cu128       N131   2.056       .  S
Cu129       N139   2.086       .  S
Cu130       N132   2.082       .  S
Cu130       N138   2.083       .  S
N131        N132   1.319       .  A
N131        C135   1.343       .  A
N132        C133   1.344       .  A
C133        C134   1.391       .  A
C133        H136   1.078       .  S
C134        C135   1.385       .  A
C134        C908   1.517       .  S
C135        H137   1.082       .  S
N138        N139   1.325       .  A
N138        C142   1.348       .  A
N139        C140   1.345       .  A
C140        C141   1.382       .  A
C140        H143   1.082       .  S
C141        C142   1.381       .  A
C141        N185   1.432       .  S
C142        H144   1.082       .  S
N145        N146   1.325       .  A
N145        C149   1.347       .  A
N145       Cu153   2.075       .  S
N146        C147   1.348       .  A
N146       Cu152   2.120       .  S
C147        C148   1.394       .  A
C147        H150   1.082       .  S
C148        C149   1.384       .  A
C148        C170   1.524       .  S
C149        H151   1.080       .  S
Cu152       N155   2.118       .  S
Cu153       N163   2.073       .  S
Cu154       N156   2.049       .  S
Cu154       N162   2.049       .  S
N155        N156   1.321       .  A
N155        C159   1.354       .  A
N156        C157   1.341       .  A
C157        C158   1.375       .  A
C157        H160   1.079       .  S
C158        C159   1.394       .  A
C158       C1573   1.482       .  S
C159        H161   1.082       .  S
N162        N163   1.322       .  A
N162        C166   1.340       .  A
N163        C164   1.348       .  A
C164        C165   1.382       .  A
C164        H167   1.082       .  S
C165        C166   1.376       .  A
C165        N341   1.427       .  S
C166        H168   1.082       .  S
C169        C171   1.544       .  S
C169        C173   1.539       .  S
C169        C172   1.550       .  S
C170        C174   1.547       .  S
C170        C176   1.533   1_565  S
C170        C175   1.531       .  S
C171        C179   1.381   1_545  A
C171        C174   1.411   1_545  A
C172        C183   1.390       .  A
C172        C175   1.394   1_545  A
C173        C187   1.386       .  A
C173        C176   1.395       .  A
C174        C177   1.391       .  A
C175        C181   1.369       .  A
C176        C184   1.377       .  A
C177        N178   1.356       .  A
C177        H190   1.081       .  S
N178        C179   1.355       .  A
N178        C202   1.441       .  S
C179        H180   1.083   1_565  S
C181        N182   1.356   1_565  A
C181        H191   1.083       .  S
N182        C183   1.364       .  A
N182       C2199   1.442       .  S
C183        H189   1.080       .  S
C184        N185   1.351       .  A
C184        H186   1.082       .  S
N185        C187   1.357       .  A
C187        H188   1.082       .  S
N192        C196   1.357       .  A
N192        C193   1.354   1_565  A
N192       C2196   1.437   1_565  S
C193        C194   1.383       .  A
C193       C1052   1.472       .  S
C194        C195   1.375   1_545  A
C194        H197   1.082       .  S
C195        C196   1.381       .  A
C195        H198   1.082       .  S
C196       C1521   1.473       .  S
N199        N200   1.322       .  A
N199        C203   1.354       .  A
N199       Cu207   2.109       .  S
N200        C201   1.344       .  A
N200       Cu206   2.060       .  S
C201        C202   1.379       .  A
C201        H204   1.082       .  S
C202        C203   1.391       .  A
C203        H205   1.082       .  S
Cu206       N209   2.060       .  S
Cu207       N217   2.112       .  S
Cu208       N210   2.129       .  S
Cu208       N216   2.131       .  S
N209        N210   1.323       .  A
N209        C213   1.343       .  A
N210        C211   1.356       .  A
C211        C212   1.396       .  A
C211        H214   1.082       .  S
C212        C213   1.377       .  A
C212       C1498   1.487       .  S
C213        H215   1.082       .  S
N216        N217   1.326       .  A
N216        C220   1.355       .  A
N217        C218   1.350       .  A
C218        C219   1.392       .  A
C218        H221   1.081       .  S
C219        C220   1.397       .  A
C219        C505   1.540       .  S
C220        H222   1.082       .  S
N223        N224   1.324       .  A
N223        C227   1.348       .  A
N223       Cu231   2.087       .  S
N224        C225   1.351       .  A
N224       Cu230   2.103       .  S
C225        C226   1.388       .  A
C225        H228   1.082       .  S
C226        C227   1.383       .  A
C226       C1495   1.482       .  S
C227        H229   1.082       .  S
Cu230       N233   2.103       .  S
Cu231       N241   2.087       .  S
Cu232       N234   2.097       .  S
Cu232       N240   2.096       .  S
N233        N234   1.323       .  A
N233        C237   1.349       .  A
N234        C235   1.349       .  A
C235        C236   1.390       .  A
C235        H238   1.081       .  S
C236        C237   1.391       .  A
C236        C272   1.525       .  S
C237        H239   1.082       .  S
N240        N241   1.325       .  A
N240        C244   1.351       .  A
N241        C242   1.349       .  A
C242        C243   1.381       .  A
C242        H245   1.082       .  S
C243        C244   1.384       .  A
C243        N653   1.439       .  S
C244        H246   1.082       .  S
N247        N248   1.323       .  A
N247        C251   1.351       .  A
N247       Cu255   2.112       .  S
N248        C249   1.346       .  A
N248       Cu254   2.074       .  S
C249        C250   1.380       .  A
C249        H252   1.077       .  S
C250        C251   1.392       .  A
C250       C1315   1.485       .  S
C251        H253   1.082       .  S
Cu254       N257   2.075       .  S
Cu255       N265   2.113       .  S
Cu256       N258   2.080       .  S
Cu256       N264   2.081       .  S
N257        N258   1.323       .  A
N257        C261   1.347       .  A
N258        C259   1.348       .  A
C259        C260   1.381       .  A
C259        H262   1.082       .  S
C260        C261   1.380       .  A
C260        N923   1.433       .  S
C261        H263   1.082       .  S
N264        N265   1.324       .  A
N264        C268   1.347       .  A
N265        C266   1.350       .  A
C266        C267   1.393       .  A
C266        H269   1.082   1_545  S
C267        C268   1.386       .  A
C267        C271   1.525   1_545  S
C268        H270   1.080       .  S
C271        C273   1.536       .  S
C271        C275   1.553   1_565  S
C271        C274   1.533       .  S
C272        C276   1.544       .  S
C272        C278   1.538       .  S
C272        C277   1.541       .  S
C273        C281   1.377       .  A
C273        C276   1.395       .  A
C274        C285   1.376       .  A
C274        C277   1.394       .  A
C275        C289   1.392       .  A
C275        C278   1.409   1_545  A
C276        C279   1.388       .  A
C277        C283   1.378       .  A
C278        C286   1.380       .  A
C279        N280   1.360       .  A
C279        H292   1.081       .  S
N280        C281   1.355       .  A
N280        C321   1.438       .  S
C281        H282   1.082       .  S
C283        N284   1.361       .  A
C283        H293   1.081       .  S
N284        C285   1.357       .  A
N284       C2182   1.437       .  S
C285        H291   1.083   1_565  S
C286        N287   1.351   1_565  A
C286        H288   1.082       .  S
N287        C289   1.357       .  A
C289        H290   1.081       .  S
N294        C298   1.355       .  A
N294        C295   1.354       .  A
N294       C2185   1.439       .  S
C295        C296   1.381       .  A
C295       C1076   1.464   1_565  S
C296        C297   1.377       .  A
C296        H299   1.082       .  S
C297        C298   1.382       .  A
C297        H300   1.082       .  S
C298       C1460   1.472       .  S
N301        N302   1.322       .  A
N301        C305   1.349       .  A
N301       Cu309   2.092       .  S
N302        C303   1.343       .  A
N302       Cu308   2.076       .  S
C303        C304   1.384       .  A
C303        H306   1.082       .  S
C304        C305   1.390       .  A
C304        C326   1.518       .  S
C305        H307   1.081       .  S
Cu308       N311   2.076       .  S
Cu309       N319   2.092       .  S
Cu310       N312   2.093       .  S
Cu310       N318   2.093       .  S
N311        N312   1.322       .  A
N311        C315   1.346       .  A
N312        C313   1.349       .  A
C313        C314   1.387       .  A
C313        H316   1.082       .  S
C314        C315   1.382       .  A
C314       C1762   1.481       .  S
C315        H317   1.082       .  S
N318        N319   1.326       .  A
N318        C322   1.347       .  A
N319        C320   1.351       .  A
C320        C321   1.383       .  A
C320        H323   1.082       .  S
C321        C322   1.382       .  A
C322        H324   1.082       .  S
C325        C327   1.539   1_455  S
C325        C329   1.547       .  S
C325        C328   1.535       .  S
C326        C330   1.532       .  S
C326        C332   1.528   1_655  S
C326        C331   1.536   1_655  S
C327        C335   1.381       .  A
C327        C330   1.406       .  A
C328        C339   1.376       .  A
C328        C331   1.393       .  A
C329        C343   1.387       .  A
C329        C332   1.409       .  A
C330        C333   1.377       .  A
C331        C337   1.377   1_455  A
C332        C340   1.373       .  A
C333        N334   1.349       .  A
C333        H346   1.082       .  S
N334        C335   1.352       .  A
N334        C368   1.426       .  S
C335        H336   1.082       .  S
C337        N338   1.356   1_655  A
C337        H347   1.082       .  S
N338        C339   1.360       .  A
N338       C2171   1.434       .  S
C339        H345   1.082       .  S
C340        N341   1.348       .  A
C340        H342   1.083       .  S
N341        C343   1.352       .  A
C343        H344   1.081       .  S
N348        C352   1.354   1_655  A
N348        C349   1.354       .  A
N348       C2168   1.434   1_655  S
C349        C350   1.383       .  A
C349       C1365   1.476       .  S
C350        C351   1.378   1_655  A
C350        H353   1.082       .  S
C351        C352   1.381       .  A
C351        H354   1.082       .  S
C352       C1178   1.474       .  S
N355        N356   1.322       .  A
N355        C359   1.344       .  A
N355       Cu363   2.093       .  S
N356        C357   1.345       .  A
N356       Cu362   2.059       .  S
C357        C358   1.383       .  A
C357        H360   1.081       .  S
C358        C359   1.391       .  A
C358        C637   1.514       .  S
C359        H361   1.082       .  S
Cu362       N365   2.058       .  S
Cu363       N373   2.092       .  S
Cu364       N366   2.063       .  S
Cu364       N372   2.062       .  S
N365        N366   1.322       .  A
N365        C369   1.343       .  A
N366        C367   1.345       .  A
C367        C368   1.379       .  A
C367        H370   1.082       .  S
C368        C369   1.376       .  A
C369        H371   1.082       .  S
N372        N373   1.323       .  A
N372        C376   1.342       .  A
N373        C374   1.349       .  A
C374        C375   1.386       .  A
C374        H377   1.082       .  S
C375        C376   1.378       .  A
C375       C1393   1.471       .  S
C376        H378   1.082       .  S
N379        N380   1.319       .  A
N379        C383   1.341       .  A
N379       Cu387   2.075       .  S
N380        C381   1.343       .  A
N380       Cu386   2.045       .  S
C381        C382   1.382       .  A
C381        H384   1.082   1_545  S
C382        C383   1.389       .  A
C382        C559   1.511   1_545  S
C383        H385   1.080       .  S
Cu386       N389   2.045       .  S
Cu387       N397   2.075       .  S
Cu388       N390   2.085       .  S
Cu388       N396   2.086       .  S
N389        N390   1.323       .  A
N389        C393   1.339       .  A
N390        C391   1.347       .  A
C391        C392   1.382       .  A
C391        H394   1.081       .  S
C392        C393   1.373       .  A
C392       C1708   1.461       .  S
C393        H395   1.082       .  S
N396        N397   1.324       .  A
N396        C400   1.347       .  A
N397        C398   1.348       .  A
C398        C399   1.380       .  A
C398        H401   1.082       .  S
C399        C400   1.384       .  A
C399        N460   1.435       .  S
C400        H402   1.082       .  S
N403        N404   1.324       .  A
N403        C407   1.351       .  A
N403       Cu411   2.103       .  S
N404        C405   1.352       .  A
N404       Cu410   2.118       .  S
C405        C406   1.395       .  A
C405        H408   1.082       .  S
C406        C407   1.392       .  A
C406        C692   1.529       .  S
C407        H409   1.081       .  S
Cu410       N413   2.118       .  S
Cu411       N421   2.103       .  S
Cu412       N414   2.106       .  S
Cu412       N420   2.106       .  S
N413        N414   1.325       .  A
N413        C417   1.354       .  A
N414        C415   1.350       .  A
C415        C416   1.391       .  A
C415        H418   1.082       .  S
C416        C417   1.394       .  A
C416        C506   1.536       .  S
C417        H419   1.081       .  S
N420        N421   1.325       .  A
N420        C424   1.352       .  A
N421        C422   1.351       .  A
C422        C423   1.387       .  A
C422        H425   1.082       .  S
C423        C424   1.387       .  A
C423       C1630   1.490       .  S
C424        H426   1.082       .  S
N427        N428   1.320       .  A
N427        C431   1.341       .  A
N427       Cu435   2.055       .  S
N428        C429   1.341       .  A
N428       Cu434   2.035       .  S
C429        C430   1.373       .  A
C429        H432   1.082       .  S
C430        C431   1.378       .  A
C430        N862   1.419       .  S
C431        H433   1.082       .  S
Cu434       N437   2.034       .  S
Cu435       N445   2.057       .  S
Cu436       N438   2.092       .  S
Cu436       N444   2.094       .  S
N437        N438   1.321       .  A
N437        C441   1.337       .  A
N438        C439   1.349       .  A
C439        C440   1.389       .  A
C439        H442   1.082       .  S
C440        C441   1.373       .  A
C440       C1705   1.469       .  S
C441        H443   1.081       .  S
N444        N445   1.326       .  A
N444        C448   1.346       .  A
N445        C446   1.344       .  A
C446        C447   1.375       .  A
C446        H449   1.082       .  S
C447        C448   1.385       .  A
C447        N754   1.433   1_545  S
C448        H450   1.082   1_545  S
C451        C453   1.541       .  S
C451        C455   1.535       .  S
C451        C454   1.542       .  S
C451        C494   1.527       .  S
C452        C456   1.539   1_554  S
C452        C458   1.544       .  S
C452        C457   1.536   1_554  S
C453        C461   1.386       .  A
C453        C456   1.407       .  A
C454        C465   1.379       .  A
C454        C457   1.393       .  A
C455        C469   1.379       .  A
C455        C458   1.410   1_556  A
C456        C459   1.380       .  A
C457        C463   1.377   1_556  A
C458        C466   1.388       .  A
C459        N460   1.351       .  A
C459        H472   1.082       .  S
N460        C461   1.356       .  A
C461        H462   1.082       .  S
C463        N464   1.357   1_554  A
C463        H473   1.081       .  S
N464        C465   1.360       .  A
N464       C2154   1.438       .  S
C465        H471   1.081       .  S
C466        N467   1.356       .  A
C466        H468   1.082       .  S
N467        C469   1.348   1_554  A
C469        H470   1.083       .  S
N474        C478   1.355   1_554  A
N474        C475   1.353       .  A
N474       C2157   1.437       .  S
C475        C476   1.380       .  A
C475       C1154   1.467       .  S
C476        C477   1.377       .  A
C476        H479   1.082       .  S
C477        C478   1.383   1_554  A
C477        H480   1.082   1_554  S
C478       C1646   1.474       .  S
N481        N482   1.324       .  A
N481        C485   1.351       .  A
N481       Cu489   2.117       .  S
N482        C483   1.352       .  A
N482       Cu488   2.103       .  S
C483        C484   1.391       .  A
C483        H486   1.081       .  S
C484        C485   1.394       .  A
C484        C800   1.536       .  S
C485        H487   1.082       .  S
Cu488       N491   2.103       .  S
Cu489       N499   2.116       .  S
Cu490       N492   2.099       .  S
Cu490       N498   2.098       .  S
N491        N492   1.322       .  A
N491        C495   1.351       .  A
N492        C493   1.347       .  A
C493        C494   1.392       .  A
C493        H496   1.080       .  S
C494        C495   1.393       .  A
C495        H497   1.082       .  S
N498        N499   1.324       .  A
N498        C502   1.352       .  A
N499        C500   1.352       .  A
C500        C501   1.391       .  A
C500        H503   1.082       .  S
C501        C502   1.387       .  A
C501       C1627   1.492       .  S
C502        H504   1.082       .  S
C505        C507   1.538   1_554  S
C505        C509   1.547       .  S
C505        C508   1.544       .  S
C506        C510   1.540       .  S
C506        C512   1.535       .  S
C506        C511   1.534       .  S
C507        C515   1.380       .  A
C507        C510   1.412       .  A
C508        C519   1.381       .  A
C508        C511   1.399   1_554  A
C509        C523   1.390       .  A
C509        C512   1.412   1_554  A
C510        C513   1.386       .  A
C511        C517   1.372       .  A
C512        C520   1.378   1_556  A
C513        N514   1.354       .  A
C513        H526   1.081       .  S
N514        C515   1.348       .  A
N514        C555   1.436       .  S
C515        H516   1.082       .  S
C517        N518   1.355   1_556  A
C517        H527   1.082       .  S
N518        C519   1.362       .  A
N518       C2140   1.436   1_554  S
C519        H525   1.082       .  S
C520        N521   1.350       .  A
C520        H522   1.082   1_554  S
N521        C523   1.353       .  A
C523        H524   1.083       .  S
N528        C532   1.351   1_556  A
N528        C529   1.351       .  A
N528       C2143   1.436       .  S
C529        C530   1.384       .  A
C529       C1582   1.473       .  S
C530        C531   1.384   1_556  A
C530        H533   1.082       .  S
C531        C532   1.381       .  A
C531        H534   1.082       .  S
C532       C1202   1.470       .  S
N535        N536   1.322       .  A
N535        C539   1.347       .  A
N535       Cu543   2.090       .  S
N536        C537   1.342       .  A
N536       Cu542   2.053       .  S
C537        C538   1.377       .  A
C537        H540   1.081       .  S
C538        C539   1.386       .  A
C538       C1867   1.469       .  S
C539        H541   1.082       .  S
Cu542       N545   2.054       .  S
Cu543       N553   2.091       .  S
Cu544       N546   2.060       .  S
Cu544       N552   2.062       .  S
N545        N546   1.322       .  A
N545        C549   1.344       .  A
N546        C547   1.343       .  A
C547        C548   1.378       .  A
C547        H550   1.082       .  S
C548        C549   1.378       .  A
C548        N575   1.427       .  S
C549        H551   1.082       .  S
N552        N553   1.325       .  A
N552        C556   1.345       .  A
N553        C554   1.346       .  A
C554        C555   1.386       .  A
C554        H557   1.081       .  S
C555        C556   1.378       .  A
C556        H558   1.083       .  S
C559        C561   1.536       .  S
C559        C563   1.534       .  S
C559        C562   1.533       .  S
C560        C564   1.535       .  S
C560        C566   1.535       .  S
C560        C565   1.530       .  S
C560        C602   1.508       .  S
C561        C569   1.383   1_565  A
C561        C564   1.413       .  A
C562        C573   1.372       .  A
C562        C565   1.388       .  A
C563        C577   1.383       .  A
C563        C566   1.406       .  A
C564        C567   1.381       .  A
C565        C571   1.374       .  A
C566        C574   1.381       .  A
C567        N568   1.347   1_565  A
C567        H580   1.081       .  S
N568        C569   1.343       .  A
C569        H570   1.081       .  S
C571        N572   1.356       .  A
C571        H581   1.082       .  S
N572        C573   1.359       .  A
N572       C2126   1.431       .  S
C573        H579   1.082   1_565  S
C574        N575   1.345       .  A
C574        H576   1.082       .  S
N575        C577   1.350       .  A
C577        H578   1.081       .  S
N582        C586   1.355   1_565  A
N582        C583   1.356       .  A
N582       C2129   1.434       .  S
C583        C584   1.382       .  A
C583       C1538   1.482       .  S
C584        C585   1.384   1_565  A
C584        H587   1.082       .  S
C585        C586   1.384       .  A
C585        H588   1.082       .  S
C586        C998   1.484       .  S
N589        N590   1.324       .  A
N589        C593   1.353       .  A
N589       Cu597   2.122       .  S
N590        C591   1.344       .  A
N590       Cu596   2.063       .  S
C591        C592   1.378       .  A
C591        H594   1.082       .  S
C592        C593   1.391       .  A
C592       C1576   1.484       .  S
C593        H595   1.079       .  S
Cu596       N599   2.062       .  S
Cu597       N607   2.122       .  S
Cu598       N600   2.054       .  S
Cu598       N606   2.053       .  S
N599        N600   1.319       .  A
N599        C603   1.343       .  A
N600        C601   1.340       .  A
C601        C602   1.384       .  A
C601        H604   1.081       .  S
C602        C603   1.385       .  A
C603        H605   1.082       .  S
N606        N607   1.324       .  A
N606        C610   1.347       .  A
N607        C608   1.351       .  A
C608        C609   1.393       .  A
C608        H611   1.081       .  S
C609        C610   1.376       .  A
C609        N707   1.440       .  S
C610        H612   1.082       .  S
N613        N614   1.320       .  A
N613        C617   1.347       .  A
N613       Cu621   2.077       .  S
N614        C615   1.340       .  A
N614       Cu620   2.041       .  S
C615        C616   1.375       .  A
C615        H618   1.082       .  S
C616        C617   1.383       .  A
C616       C1870   1.463       .  S
C617        H619   1.080       .  S
Cu620       N623   2.042       .  S
Cu621       N631   2.078       .  S
Cu622       N624   2.133       .  S
Cu622       N630   2.133       .  S
N623        N624   1.322       .  A
N623        C627   1.344       .  A
N624        C625   1.350       .  A
C625        C626   1.400       .  A
C625        H628   1.081       .  S
C626        C627   1.377       .  A
C626        C638   1.522       .  S
C627        H629   1.082       .  S
N630        N631   1.323       .  A
N630        C634   1.356       .  A
N631        C632   1.344       .  A
C632        C633   1.387       .  A
C632        H635   1.081       .  S
C633        C634   1.399       .  A
C633        C746   1.530       .  S
C634        H636   1.082       .  S
C637        C639   1.534       .  S
C637        C641   1.539       .  S
C637        C640   1.529       .  S
C638        C642   1.541       .  S
C638        C644   1.541   1_556  S
C638        C643   1.547       .  S
C639        C647   1.380   1_554  A
C639        C642   1.412   1_554  A
C640        C651   1.370       .  A
C640        C643   1.390   1_554  A
C641        C655   1.384       .  A
C641        C644   1.395       .  A
C642        C645   1.384       .  A
C643        C649   1.386       .  A
C644        C652   1.382       .  A
C645        N646   1.347       .  A
C645        H658   1.082       .  S
N646        C647   1.348       .  A
N646        C670   1.426       .  S
C647        H648   1.082   1_556  S
C649        N650   1.365       .  A
C649        H659   1.083       .  S
N650        C651   1.353   1_556  A
N650       C2112   1.440       .  S
C651        H657   1.081       .  S
C652        N653   1.359       .  A
C652        H654   1.083       .  S
N653        C655   1.358       .  A
C655        H656   1.081       .  S
N660        C664   1.348       .  A
N660        C661   1.349   1_556  A
N660       C2115   1.435       .  S
C661        C662   1.383   1_554  A
C661       C1412   1.466       .  S
C662        C663   1.383       .  A
C662        H665   1.082   1_556  S
C663        C664   1.381       .  A
C663        H666   1.082       .  S
C664       C1822   1.463       .  S
N667        N668   1.322       .  A
N667        C671   1.345       .  A
N667       Cu675   2.066       .  S
N668        C669   1.342       .  A
N668       Cu674   2.055       .  S
C669        C670   1.377       .  A
C669        H672   1.082       .  S
C670        C671   1.379       .  A
C671        H673   1.082       .  S
Cu674       N677   2.055       .  S
Cu675       N685   2.068       .  S
Cu676       N678   2.079       .  S
Cu676       N684   2.079       .  S
N677        N678   1.322       .  A
N677        C681   1.342       .  A
N678        C679   1.345       .  A
C679        C680   1.383       .  A
C679        H682   1.082       .  S
C680        C681   1.378       .  A
C680       C1816   1.468       .  S
C681        H683   1.082       .  S
N684        N685   1.325       .  A
N684        C688   1.347       .  A
N685        C686   1.343       .  A
C686        C687   1.380       .  A
C686        H689   1.082       .  S
C687        C688   1.382       .  A
C687        N700   1.433   1_655  S
C688        H690   1.082   1_655  S
C691        C693   1.532       .  S
C691        C695   1.530       .  S
C691        C694   1.533       .  S
C691        C734   1.523   1_455  S
C692        C696   1.548       .  S
C692        C698   1.542       .  S
C692        C697   1.554       .  S
C693        C701   1.383       .  A
C693        C696   1.413       .  A
C694        C705   1.364       .  A
C694        C697   1.405       .  A
C695        C709   1.375       .  A
C695        C698   1.389       .  A
C696        C699   1.385       .  A
C697        C703   1.395       .  A
C698        C706   1.389       .  A
C699        N700   1.350       .  A
C699        H712   1.082       .  S
N700        C701   1.349       .  A
C701        H702   1.081   1_455  S
C703        N704   1.363       .  A
C703        H713   1.081       .  S
N704        C705   1.351       .  A
N704       C2098   1.442       .  S
C705        H711   1.083   1_455  S
C706        N707   1.365       .  A
C706        H708   1.082       .  S
N707        C709   1.352       .  A
C709        H710   1.082       .  S
N714        C718   1.355       .  A
N714        C715   1.355   1_455  A
N714       C2101   1.435       .  S
C715        C716   1.388       .  A
C715       C1778   1.482       .  S
C716        C717   1.377   1_655  A
C716        H719   1.082       .  S
C717        C718   1.378       .  A
C717        H720   1.082       .  S
C718       C1436   1.470       .  S
N721        N722   1.326       .  A
N721        C725   1.350       .  A
N721       Cu729   2.106       .  S
N722        C723   1.347       .  A
N722       Cu728   2.072       .  S
C723        C724   1.378       .  A
C723        H726   1.082       .  S
C724        C725   1.386       .  A
C724        N761   1.436       .  S
C725        H727   1.082       .  S
Cu728       N731   2.071       .  S
Cu729       N739   2.106       .  S
Cu730       N732   2.083       .  S
Cu730       N738   2.083       .  S
N731        N732   1.320       .  A
N731        C735   1.346       .  A
N732        C733   1.344       .  A
C733        C734   1.390       .  A
C733        H736   1.082   1_655  S
C734        C735   1.388       .  A
C735        H737   1.080       .  S
N738        N739   1.324       .  A
N738        C742   1.346       .  A
N739        C740   1.352       .  A
C740        C741   1.388       .  A
C740        H743   1.082       .  S
C741        C742   1.382       .  A
C741       C1759   1.479       .  S
C742        H744   1.082       .  S
C745        C747   1.540       .  S
C745        C749   1.539       .  S
C745        C748   1.533       .  S
C745        C778   1.531   1_565  S
C746        C750   1.541       .  S
C746        C752   1.539       .  S
C746        C751   1.547       .  S
C747        C755   1.387   1_565  A
C747        C750   1.419       .  A
C748        C759   1.370       .  A
C748        C751   1.391       .  A
C749        C763   1.383       .  A
C749        C752   1.407       .  A
C750        C753   1.381       .  A
C751        C757   1.386       .  A
C752        C760   1.387       .  A
C753        N754   1.345       .  A
C753        H766   1.081       .  S
N754        C755   1.351   1_565  A
C755        H756   1.082       .  S
C757        N758   1.363       .  A
C757        H767   1.080       .  S
N758        C759   1.358       .  A
N758       C2084   1.442       .  S
C759        H765   1.083       .  S
C760        N761   1.355       .  A
C760        H762   1.083       .  S
N761        C763   1.350       .  A
C763        H764   1.081       .  S
N768        C772   1.355       .  A
N768        C769   1.357       .  A
N768       C2087   1.438       .  S
C769        C770   1.382       .  A
C769       C1724   1.480       .  S
C770        C771   1.382       .  A
C770        H773   1.082       .  S
C771        C772   1.383       .  A
C771        H774   1.082   1_565  S
C772       C1246   1.477   1_565  S
N775        N776   1.322       .  A
N775        C779   1.356       .  A
N775       Cu783   2.128       .  S
N776        C777   1.343       .  A
N776       Cu782   2.066       .  S
C777        C778   1.384       .  A
C777        H780   1.082   1_545  S
C778        C779   1.400       .  A
C779        H781   1.081       .  S
Cu782       N785   2.066       .  S
Cu783       N793   2.130       .  S
Cu784       N786   2.112       .  S
Cu784       N792   2.114       .  S
N785        N786   1.321       .  A
N785        C789   1.344       .  A
N786        C787   1.353       .  A
C787        C788   1.392       .  A
C787        H790   1.075       .  S
C788        C789   1.382       .  A
C788       C1318   1.489       .  S
C789        H791   1.082       .  S
N792        N793   1.326       .  A
N792        C796   1.354       .  A
N793        C794   1.352       .  A
C794        C795   1.396       .  A
C794        H797   1.082       .  S
C795        C796   1.393       .  A
C795        C799   1.536       .  S
C796        H798   1.082       .  S
C799        C801   1.541   1_655  S
C799        C803   1.543       .  S
C799        C802   1.550       .  S
C800        C804   1.535       .  S
C800        C806   1.529   1_455  S
C800        C805   1.530       .  S
C801        C809   1.381       .  A
C801        C804   1.418       .  A
C802        C813   1.392       .  A
C802        C805   1.395   1_655  A
C803        C817   1.387       .  A
C803        C806   1.407       .  A
C804        C807   1.382       .  A
C805        C811   1.362       .  A
C806        C814   1.374       .  A
C807        N808   1.348       .  A
C807        H820   1.083       .  S
N808        C809   1.348       .  A
C809        H810   1.081       .  S
C811        N812   1.355   1_455  A
C811        H821   1.082       .  S
N812        C813   1.367       .  A
N812       C2070   1.443       .  S
C813        H819   1.081       .  S
C814        N815   1.350       .  A
C814        H816   1.082       .  S
N815        C817   1.354       .  A
N815        C849   1.432       .  S
C817        H818   1.082       .  S
N822        C826   1.357   1_455  A
N822        C823   1.359       .  A
N822       C2073   1.435       .  S
C823        C824   1.386       .  A
C823        C964   1.486       .  S
C824        C825   1.378   1_455  A
C824        H827   1.082       .  S
C825        C826   1.378       .  A
C825        H828   1.082       .  S
C826       C1280   1.476       .  S
N829        N830   1.323       .  A
N829        C833   1.341       .  A
N829       Cu837   2.061       .  S
N830        C831   1.350       .  A
N830       Cu836   2.093       .  S
C831        C832   1.387       .  A
C831        H834   1.082       .  S
C832        C833   1.377       .  A
C832       C1813   1.470       .  S
C833        H835   1.082       .  S
Cu836       N839   2.095       .  S
Cu837       N847   2.060       .  S
Cu838       N840   2.074       .  S
Cu838       N846   2.072       .  S
N839        N840   1.324       .  A
N839        C843   1.350       .  A
N840        C841   1.342       .  A
C841        C842   1.382       .  A
C841        H844   1.082       .  S
C842        C843   1.389       .  A
C842        C854   1.516       .  S
C843        H845   1.081       .  S
N846        N847   1.321       .  A
N846        C850   1.349       .  A
N847        C848   1.341       .  A
C848        C849   1.379       .  A
C848        H851   1.082       .  S
C849        C850   1.383       .  A
C850        H852   1.082       .  S
C853        C855   1.536   1_554  S
C853        C857   1.544       .  S
C853        C856   1.537       .  S
C854        C858   1.510       .  S
C854        C860   1.532   1_556  S
C854        C859   1.542   1_556  S
C855        C863   1.377       .  A
C855        C858   1.385       .  A
C856        C867   1.373       .  A
C856        C859   1.413       .  A
C857        C871   1.388       .  A
C857        C860   1.412       .  A
C858        C861   1.366       .  A
C859        C865   1.382       .  A
C860        C868   1.369       .  A
C861        N862   1.349       .  A
C861        H874   1.082       .  S
N862        C863   1.358       .  A
C863        H864   1.082       .  S
C865        N866   1.354       .  A
C865        H875   1.083   1_554  S
N866        C867   1.350       .  A
N866       C2059   1.436       .  S
C867        H873   1.078       .  S
C868        N869   1.347       .  A
C868        H870   1.082       .  S
N869        C871   1.354       .  A
N869        C886   1.433       .  S
C871        H872   1.080       .  S
N876        C880   1.360       .  A
N876        C877   1.360   1_554  A
N876       C2056   1.430       .  S
C877        C878   1.380       .  A
C877       C1670   1.486       .  S
C878        C879   1.380   1_556  A
C878        H881   1.082       .  S
C879        C880   1.384       .  A
C879        H882   1.082       .  S
C880       C1090   1.491       .  S
N883        N884   1.320       .  A
N883        C887   1.344       .  A
N883       Cu891   2.054       .  S
N884        C885   1.338       .  A
N884       Cu890   2.055       .  S
C885        C886   1.383       .  A
C885        H888   1.081       .  S
C886        C887   1.383       .  A
C887        H889   1.082       .  S
Cu890       N893   2.056       .  S
Cu891       N901   2.052       .  S
Cu892       N894   2.091       .  S
Cu892       N900   2.093       .  S
N893        N894   1.320       .  A
N893        C897   1.342       .  A
N894        C895   1.350       .  A
C895        C896   1.391       .  A
C895        H898   1.080       .  S
C896        C897   1.380       .  A
C896       C1396   1.480       .  S
C897        H899   1.082       .  S
N900        N901   1.322       .  A
N900        C904   1.347       .  A
N901        C902   1.340       .  A
C902        C903   1.380       .  A
C902        H905   1.082       .  S
C903        C904   1.391       .  A
C903        C907   1.507       .  S
C904        H906   1.082       .  S
C907        C909   1.538       .  S
C907        C911   1.529       .  S
C907        C910   1.534       .  S
C908        C912   1.542       .  S
C908        C914   1.535   1_455  S
C908        C913   1.540       .  S
C909        C917   1.381       .  A
C909        C912   1.416   1_655  A
C910        C921   1.379       .  A
C910        C913   1.399   1_655  A
C911        C925   1.379       .  A
C911        C914   1.385       .  A
C912        C915   1.385       .  A
C913        C919   1.373       .  A
C914        C922   1.380       .  A
C915        N916   1.347       .  A
C915        H928   1.079       .  S
N916        C917   1.347   1_455  A
C917        H918   1.084       .  S
C919        N920   1.356       .  A
C919        H929   1.082       .  S
N920        C921   1.355   1_455  A
N920       C2045   1.435       .  S
C921        H927   1.081       .  S
C922        N923   1.358       .  A
C922        H924   1.082       .  S
N923        C925   1.357       .  A
C925        H926   1.082       .  S
N930        C934   1.351   1_455  A
N930        C931   1.354       .  A
N930       C2042   1.432       .  S
C931        C932   1.380       .  A
C931        C950   1.476       .  S
C932        C933   1.381   1_455  A
C932        H935   1.082       .  S
C933        C934   1.384       .  A
C933        H936   1.082       .  S
C934       C1334   1.475       .  S
N937        N938   1.324       .  A
N937        C941   1.350       .  A
N937       Cu945   2.101       .  S
N938        C939   1.346       .  A
N938       Cu944   2.095       .  S
C939        C940   1.390       .  A
C939        H942   1.082       .  S
C940        C941   1.392       .  A
C940       C1017   1.529       .  S
C941        H943   1.079       .  S
Cu944       N947   2.093       .  S
Cu945       N955   2.101       .  S
Cu946       N948   2.063       .  S
Cu946       N954   2.065       .  S
N947        N948   1.322       .  A
N947        C951   1.349       .  A
N948        C949   1.344       .  A
C949        C950   1.379       .  A
C949        H952   1.082       .  S
C950        C951   1.387       .  A
C951        H953   1.082       .  S
N954        N955   1.325       .  A
N954        C958   1.344       .  A
N955        C956   1.352       .  A
C956        C957   1.386       .  A
C956        H959   1.082       .  S
C957        C958   1.376       .  A
C957       N1236   1.434       .  S
C958        H960   1.082       .  S
N961        N962   1.323       .  A
N961        C965   1.358       .  A
N961       Cu969   2.125       .  S
N962        C963   1.341       .  A
N962       Cu968   2.069       .  S
C963        C964   1.380       .  A
C963        H966   1.082       .  S
C964        C965   1.395       .  A
C965        H967   1.082       .  S
Cu968       N971   2.068       .  S
Cu969       N979   2.127       .  S
Cu970       N972   2.071       .  S
Cu970       N978   2.072       .  S
N971        N972   1.318       .  A
N971        C975   1.342       .  A
N972        C973   1.347       .  A
C973        C974   1.389       .  A
C973        H976   1.080       .  S
C974        C975   1.387       .  A
C974       C1603   1.517       .  S
C975        H977   1.082       .  S
N978        N979   1.327       .  A
N978        C982   1.347       .  A
N979        C980   1.352       .  A
C980        C981   1.391       .  A
C980        H983   1.082       .  S
C981        C982   1.377       .  A
C981       N1032   1.438       .  S
C982        H984   1.082       .  S
N985        N986   1.320       .  A
N985        C989   1.357       .  A
N985       Cu993   2.143       .  S
N986        C987   1.342       .  A
N986       Cu992   2.044       .  S
C987        C988   1.379       .  A
C987        H990   1.082       .  S
C988        C989   1.404       .  A
C988       C1681   1.531       .  S
C989        H991   1.081       .  S
Cu992       N995   2.044       .  S
Cu993      N1003   2.145       .  S
Cu994       N996   2.127       .  S
Cu994      N1002   2.129       .  S
N995        N996   1.321       .  A
N995        C999   1.342       .  A
N996        C997   1.356       .  A
C997        C998   1.397       .  A
C997       H1000   1.081       .  S
C998        C999   1.375       .  A
C999       H1001   1.082       .  S
N1002      N1003   1.329       .  A
N1002      C1006   1.355       .  A
N1003      C1004   1.356       .  A
C1004      C1005   1.397       .  A
C1004      H1007   1.082       .  S
C1005      C1006   1.394       .  A
C1005      C1016   1.540       .  S
C1006      H1008   1.081       .  S
N1009      C1013   1.353       .  A
N1009      C1010   1.351       .  A
N1009      C2028   1.439       .  S
C1010      C1011   1.384       .  A
C1011      C1012   1.377       .  A
C1011      H1014   1.082       .  S
C1012      C1013   1.380       .  A
C1012      H1015   1.082       .  S
C1016      C1018   1.549       .  S
C1016      C1020   1.544       .  S
C1016      C1019   1.555       .  S
C1017      C1021   1.541       .  S
C1017      C1023   1.532       .  S
C1017      C1022   1.530       .  S
C1018      C1026   1.383       .  A
C1018      C1021   1.420       .  A
C1019      C1030   1.392       .  A
C1019      C1022   1.400       .  A
C1020      C1034   1.389       .  A
C1020      C1023   1.390       .  A
C1021      C1024   1.389       .  A
C1022      C1028   1.366       .  A
C1023      C1031   1.377       .  A
C1024      N1025   1.350       .  A
C1024      H1037   1.080       .  S
N1025      C1026   1.352       .  A
N1025      C1059   1.437       .  S
C1026      H1027   1.083       .  S
C1028      N1029   1.353       .  A
C1028      H1038   1.083       .  S
N1029      C1030   1.365       .  A
N1029      C2031   1.438       .  S
C1030      H1036   1.081       .  S
C1031      N1032   1.353       .  A
C1031      H1033   1.082       .  S
N1032      C1034   1.363       .  A
C1034      H1035   1.082       .  S
N1039      N1040   1.324       .  A
N1039      C1043   1.348       .  A
N1039     Cu1047   2.098       .  S
N1040      C1041   1.347       .  A
N1040     Cu1046   2.091       .  S
C1041      C1042   1.388       .  A
C1041      H1044   1.081       .  S
C1042      C1043   1.390       .  A
C1042      C1118   1.522       .  S
C1043      H1045   1.082       .  S
Cu1046     N1049   2.089       .  S
Cu1047     N1057   2.096       .  S
Cu1048     N1050   2.056       .  S
Cu1048     N1056   2.056       .  S
N1049      N1050   1.321       .  A
N1049      C1053   1.351       .  A
N1050      C1051   1.339       .  A
C1051      C1052   1.377       .  A
C1051      H1054   1.082       .  S
C1052      C1053   1.388       .  A
C1053      H1055   1.082       .  S
N1056      N1057   1.322       .  A
N1056      C1060   1.343       .  A
N1057      C1058   1.351       .  A
C1058      C1059   1.388       .  A
C1058      H1061   1.082       .  S
C1059      C1060   1.378       .  A
C1060      H1062   1.082       .  S
N1063      N1064   1.323       .  A
N1063      C1067   1.347       .  A
N1063     Cu1071   2.061       .  S
N1064      C1065   1.340       .  A
N1064     Cu1070   2.066       .  S
C1065      C1066   1.381       .  A
C1065      H1068   1.082       .  S
C1066      C1067   1.379       .  A
C1066      N1127   1.430       .  S
C1067      H1069   1.082       .  S
Cu1070     N1073   2.066       .  S
Cu1071     N1081   2.061       .  S
Cu1072     N1074   2.057       .  S
Cu1072     N1080   2.057       .  S
N1073      N1074   1.321       .  A
N1073      C1077   1.344       .  A
N1074      C1075   1.342       .  A
C1075      C1076   1.378       .  A
C1075      H1078   1.079       .  S
C1076      C1077   1.381       .  A
C1077      H1079   1.082       .  S
N1080      N1081   1.323       .  A
N1080      C1084   1.343       .  A
N1081      C1082   1.342       .  A
C1082      C1083   1.378       .  A
C1082      H1085   1.082       .  S
C1083      C1084   1.377       .  A
C1083      N1300   1.426       .  S
C1084      H1086   1.081       .  S
N1087      N1088   1.323       .  A
N1087      C1091   1.355       .  A
N1087     Cu1095   2.113       .  S
N1088      C1089   1.347       .  A
N1088     Cu1094   2.089       .  S
C1089      C1090   1.385       .  A
C1089      H1092   1.082       .  S
C1090      C1091   1.391       .  A
C1091      H1093   1.080       .  S
Cu1094     N1097   2.089       .  S
Cu1095     N1105   2.114       .  S
Cu1096     N1098   2.105       .  S
Cu1096     N1104   2.106       .  S
N1097      N1098   1.323       .  A
N1097      C1101   1.347       .  A
N1098      C1099   1.352       .  A
C1099      C1100   1.392       .  A
C1099      H1102   1.081       .  S
C1100      C1101   1.388       .  A
C1100      C1119   1.526       .  S
C1101      H1103   1.082       .  S
N1104      N1105   1.325       .  A
N1104      C1108   1.351       .  A
N1105      C1106   1.350       .  A
C1106      C1107   1.393       .  A
C1106      H1109   1.082       .  S
C1107      C1108   1.391       .  A
C1107      C1370   1.530       .  S
C1108      H1110   1.082       .  S
N1111      C1115   1.357       .  A
N1111      C1112   1.355       .  A
N1111      C2017   1.434       .  S
C1112      C1113   1.382       .  A
C1113      C1114   1.380       .  A
C1113      H1116   1.082       .  S
C1114      C1115   1.382       .  A
C1114      H1117   1.082       .  S
C1118      C1120   1.533       .  S
C1118      C1122   1.531       .  S
C1118      C1121   1.542       .  S
C1119      C1123   1.543       .  S
C1119      C1125   1.537       .  S
C1119      C1124   1.532       .  S
C1120      C1128   1.373       .  A
C1120      C1123   1.417       .  A
C1121      C1132   1.383       .  A
C1121      C1124   1.391       .  A
C1122      C1136   1.377       .  A
C1122      C1125   1.403       .  A
C1123      C1126   1.388       .  A
C1124      C1130   1.371       .  A
C1125      C1133   1.381       .  A
C1126      N1127   1.352       .  A
C1126      H1139   1.083       .  S
N1127      C1128   1.347       .  A
C1128      H1129   1.081       .  S
C1130      N1131   1.357       .  A
C1130      H1140   1.083       .  S
N1131      C1132   1.361       .  A
N1131      C2014   1.439       .  S
C1132      H1138   1.080       .  S
C1133      N1134   1.354       .  A
C1133      H1135   1.083       .  S
N1134      C1136   1.350       .  A
N1134      C1144   1.429       .  S
C1136      H1137   1.082       .  S
N1141      N1142   1.322       .  A
N1141      C1145   1.345       .  A
N1141     Cu1149   2.071       .  S
N1142      C1143   1.343       .  A
N1142     Cu1148   2.059       .  S
C1143      C1144   1.378       .  A
C1143      H1146   1.082       .  S
C1144      C1145   1.381       .  A
C1145      H1147   1.082       .  S
Cu1148     N1151   2.059       .  S
Cu1149     N1159   2.071       .  S
Cu1150     N1152   2.088       .  S
Cu1150     N1158   2.089       .  S
N1151      N1152   1.321       .  A
N1151      C1155   1.342       .  A
N1152      C1153   1.347       .  A
C1153      C1154   1.386       .  A
C1153      H1156   1.082       .  S
C1154      C1155   1.378       .  A
C1155      H1157   1.082       .  S
N1158      N1159   1.321       .  A
N1158      C1162   1.345       .  A
N1159      C1160   1.344       .  A
C1160      C1161   1.386       .  A
C1160      H1163   1.081       .  S
C1161      C1162   1.391       .  A
C1161      C1220   1.513       .  S
C1162      H1164   1.081       .  S
N1165      N1166   1.323       .  A
N1165      C1169   1.348       .  A
N1165     Cu1173   2.091       .  S
N1166      C1167   1.345       .  A
N1166     Cu1172   2.079       .  S
C1167      C1168   1.385       .  A
C1167      H1170   1.082       .  S
C1168      C1169   1.389       .  A
C1168      C1221   1.516       .  S
C1169      H1171   1.081       .  S
Cu1172     N1175   2.078       .  S
Cu1173     N1183   2.091       .  S
Cu1174     N1176   2.079       .  S
Cu1174     N1182   2.079       .  S
N1175      N1176   1.322       .  A
N1175      C1179   1.345       .  A
N1176      C1177   1.348       .  A
C1177      C1178   1.384       .  A
C1177      H1180   1.082       .  S
C1178      C1179   1.382       .  A
C1179      H1181   1.082       .  S
N1182      N1183   1.326       .  A
N1182      C1186   1.345       .  A
N1183      C1184   1.350       .  A
C1184      C1185   1.383       .  A
C1184      H1187   1.082       .  S
C1185      C1186   1.380       .  A
C1185      N1565   1.436       .  S
C1186      H1188   1.082       .  S
N1189      N1190   1.325       .  A
N1189      C1193   1.346       .  A
N1189     Cu1197   2.060       .  S
N1190      C1191   1.347       .  A
N1190     Cu1196   2.098       .  S
C1191      C1192   1.387       .  A
C1191      H1194   1.081       .  S
C1192      C1193   1.377       .  A
C1192      N1229   1.436       .  S
C1193      H1195   1.082       .  S
Cu1196     N1199   2.097       .  S
Cu1197     N1207   2.059       .  S
Cu1198     N1200   2.056       .  S
Cu1198     N1206   2.055       .  S
N1199      N1200   1.323       .  A
N1199      C1203   1.351       .  A
N1200      C1201   1.341       .  A
C1201      C1202   1.375       .  A
C1201      H1204   1.081       .  S
C1202      C1203   1.386       .  A
C1203      H1205   1.082       .  S
N1206      N1207   1.319       .  A
N1206      C1210   1.343       .  A
N1207      C1208   1.341       .  A
C1208      C1209   1.385       .  A
C1208      H1211   1.082       .  S
C1209      C1210   1.384       .  A
C1209      C1471   1.505       .  S
C1210      H1212   1.082       .  S
N1213      C1217   1.356       .  A
N1213      C1214   1.356       .  A
N1213      C2000   1.437       .  S
C1214      C1215   1.380       .  A
C1215      C1216   1.379       .  A
C1215      H1218   1.082       .  S
C1216      C1217   1.384       .  A
C1216      H1219   1.082       .  S
C1220      C1222   1.537       .  S
C1220      C1224   1.535       .  S
C1220      C1223   1.540       .  S
C1221      C1225   1.547       .  S
C1221      C1227   1.536       .  S
C1221      C1226   1.532       .  S
C1222      C1230   1.377       .  A
C1222      C1225   1.414       .  A
C1223      C1234   1.379       .  A
C1223      C1226   1.391       .  A
C1224      C1238   1.383       .  A
C1224      C1227   1.389       .  A
C1225      C1228   1.390       .  A
C1226      C1232   1.375       .  A
C1227      C1235   1.378       .  A
C1228      N1229   1.356       .  A
C1228      H1241   1.082       .  S
N1229      C1230   1.347       .  A
C1230      H1231   1.082       .  S
C1232      N1233   1.358       .  A
C1232      H1242   1.083       .  S
N1233      C1234   1.360       .  A
N1233      C2003   1.439       .  S
C1234      H1240   1.080       .  S
C1235      N1236   1.358       .  A
C1235      H1237   1.083       .  S
N1236      C1238   1.358       .  A
C1238      H1239   1.082       .  S
N1243      N1244   1.323       .  A
N1243      C1247   1.353       .  A
N1243     Cu1251   2.117       .  S
N1244      C1245   1.343       .  A
N1244     Cu1250   2.058       .  S
C1245      C1246   1.377       .  A
C1245      H1248   1.081       .  S
C1246      C1247   1.392       .  A
C1247      H1249   1.082       .  S
Cu1250     N1253   2.058       .  S
Cu1251     N1261   2.118       .  S
Cu1252     N1254   2.064       .  S
Cu1252     N1260   2.065       .  S
N1253      N1254   1.318       .  A
N1253      C1257   1.340       .  A
N1254      C1255   1.345       .  A
C1255      C1256   1.389       .  A
C1255      H1258   1.081       .  S
C1256      C1257   1.385       .  A
C1256      C1292   1.513       .  S
C1257      H1259   1.082       .  S
N1260      N1261   1.327       .  A
N1260      C1264   1.344       .  A
N1261      C1262   1.353       .  A
C1262      C1263   1.388       .  A
C1262      H1265   1.082       .  S
C1263      C1264   1.374       .  A
C1263      N1697   1.436       .  S
C1264      H1266   1.082       .  S
N1267      N1268   1.323       .  A
N1267      C1271   1.345       .  A
N1267     Cu1275   2.067       .  S
N1268      C1269   1.347       .  A
N1268     Cu1274   2.105       .  S
C1269      C1270   1.392       .  A
C1269      H1272   1.082       .  S
C1270      C1271   1.383       .  A
C1270      C1790   1.518       .  S
C1271      H1273   1.081       .  S
Cu1274     N1277   2.104       .  S
Cu1275     N1285   2.066       .  S
Cu1276     N1278   2.058       .  S
Cu1276     N1284   2.059       .  S
N1277      N1278   1.322       .  A
N1277      C1281   1.349       .  A
N1278      C1279   1.345       .  A
C1279      C1280   1.378       .  A
C1279      H1282   1.082       .  S
C1280      C1281   1.389       .  A
C1281      H1283   1.082       .  S
N1284      N1285   1.323       .  A
N1284      C1288   1.342       .  A
N1285      C1286   1.346       .  A
C1286      C1287   1.379       .  A
C1286      H1289   1.082       .  S
C1287      C1288   1.377       .  A
C1287      N1307   1.427       .  S
C1288      H1290   1.082       .  S
C1291      C1293   1.516       .  S
C1291      C1295   1.532       .  S
C1291      C1294   1.542       .  S
C1291      C1324   1.507       .  S
C1292      C1296   1.532       .  S
C1292      C1298   1.542       .  S
C1292      C1297   1.541       .  S
C1293      C1301   1.370       .  A
C1293      C1296   1.383       .  A
C1294      C1305   1.383       .  A
C1294      C1297   1.411       .  A
C1295      C1309   1.378       .  A
C1295      C1298   1.413       .  A
C1296      C1299   1.377       .  A
C1297      C1303   1.379       .  A
C1298      C1306   1.386       .  A
C1299      N1300   1.357       .  A
C1299      H1312   1.082       .  S
N1300      C1301   1.352       .  A
C1301      H1302   1.082       .  S
C1303      N1304   1.348       .  A
C1303      H1313   1.085       .  S
N1304      C1305   1.353       .  A
N1304      C1986   1.436       .  S
C1305      H1311   1.079       .  S
C1306      N1307   1.348       .  A
C1306      H1308   1.082       .  S
N1307      C1309   1.347       .  A
C1309      H1310   1.083       .  S
N1314      C1318   1.360       .  A
N1314      C1315   1.361       .  A
N1314      C1989   1.434       .  S
C1315      C1316   1.380       .  A
C1316      C1317   1.378       .  A
C1316      H1319   1.082       .  S
C1317      C1318   1.384       .  A
C1317      H1320   1.082       .  S
N1321      N1322   1.319       .  A
N1321      C1325   1.345       .  A
N1321     Cu1329   2.080       .  S
N1322      C1323   1.342       .  A
N1322     Cu1328   2.045       .  S
C1323      C1324   1.381       .  A
C1323      H1326   1.081       .  S
C1324      C1325   1.388       .  A
C1325      H1327   1.082       .  S
Cu1328     N1331   2.046       .  S
Cu1329     N1339   2.081       .  S
Cu1330     N1332   2.115       .  S
Cu1330     N1338   2.117       .  S
N1331      N1332   1.323       .  A
N1331      C1335   1.339       .  A
N1332      C1333   1.354       .  A
C1333      C1334   1.392       .  A
C1333      H1336   1.082       .  S
C1334      C1335   1.373       .  A
C1335      H1337   1.082       .  S
N1338      N1339   1.328       .  A
N1338      C1342   1.351       .  A
N1339      C1340   1.348       .  A
C1340      C1341   1.378       .  A
C1340      H1343   1.082       .  S
C1341      C1342   1.387       .  A
C1341      N1385   1.439       .  S
C1342      H1344   1.082       .  S
N1345      N1346   1.326       .  A
N1345      C1349   1.351       .  A
N1345     Cu1353   2.103       .  S
N1346      C1347   1.351       .  A
N1346     Cu1352   2.125       .  S
C1347      C1348   1.394       .  A
C1347      H1350   1.082       .  S
C1348      C1349   1.390       .  A
C1348      C1736   1.531       .  S
C1349      H1351   1.078       .  S
Cu1352     N1355   2.123       .  S
Cu1353     N1363   2.101       .  S
Cu1354     N1356   2.054       .  S
Cu1354     N1362   2.055       .  S
N1355      N1356   1.321       .  A
N1355      C1359   1.354       .  A
N1356      C1357   1.342       .  A
C1357      C1358   1.381       .  A
C1357      H1360   1.082       .  S
C1358      C1359   1.399       .  A
C1358      C1369   1.526       .  S
C1359      H1361   1.081       .  S
N1362      N1363   1.321       .  A
N1362      C1366   1.341       .  A
N1363      C1364   1.353       .  A
C1364      C1365   1.390       .  A
C1364      H1367   1.082       .  S
C1365      C1366   1.378       .  A
C1366      H1368   1.082       .  S
C1369      C1371   1.538       .  S
C1369      C1373   1.539       .  S
C1369      C1372   1.538       .  S
C1370      C1374   1.540       .  S
C1370      C1376   1.547       .  S
C1370      C1375   1.536       .  S
C1371      C1379   1.385       .  A
C1371      C1374   1.410       .  A
C1372      C1383   1.378       .  A
C1372      C1375   1.391       .  A
C1373      C1387   1.384       .  A
C1373      C1376   1.412       .  A
C1374      C1377   1.386       .  A
C1375      C1381   1.372       .  A
C1376      C1384   1.390       .  A
C1377      N1378   1.349       .  A
C1377      H1390   1.081       .  S
N1378      C1379   1.351       .  A
N1378      C1419   1.435       .  S
C1379      H1380   1.082       .  S
C1381      N1382   1.361       .  A
C1381      H1391   1.083       .  S
N1382      C1383   1.360       .  A
N1382      C1972   1.441       .  S
C1383      H1389   1.080       .  S
C1384      N1385   1.356       .  A
C1384      H1386   1.082       .  S
N1385      C1387   1.350       .  A
C1387      H1388   1.082       .  S
N1392      C1396   1.355       .  A
N1392      C1393   1.353       .  A
N1392      C1975   1.435       .  S
C1393      C1394   1.380       .  A
C1394      C1395   1.380       .  A
C1394      H1397   1.082       .  S
C1395      C1396   1.385       .  A
C1395      H1398   1.082       .  S
N1399      N1400   1.321       .  A
N1399      C1403   1.342       .  A
N1399     Cu1407   2.061       .  S
N1400      C1401   1.344       .  A
N1400     Cu1406   2.053       .  S
C1401      C1402   1.379       .  A
C1401      H1404   1.082       .  S
C1402      C1403   1.379       .  A
C1402      N1480   1.428       .  S
C1403      H1405   1.082       .  S
Cu1406     N1409   2.054       .  S
Cu1407     N1417   2.061       .  S
Cu1408     N1410   2.101       .  S
Cu1408     N1416   2.101       .  S
N1409      N1410   1.323       .  A
N1409      C1413   1.341       .  A
N1410      C1411   1.350       .  A
C1411      C1412   1.387       .  A
C1411      H1414   1.082       .  S
C1412      C1413   1.374       .  A
C1413      H1415   1.082       .  S
N1416      N1417   1.325       .  A
N1416      C1420   1.351       .  A
N1417      C1418   1.344       .  A
C1418      C1419   1.375       .  A
C1418      H1421   1.082       .  S
C1419      C1420   1.387       .  A
C1420      H1422   1.082       .  S
N1423      N1424   1.321       .  A
N1423      C1427   1.344       .  A
N1423     Cu1431   2.056       .  S
N1424      C1425   1.341       .  A
N1424     Cu1430   2.048       .  S
C1425      C1426   1.375       .  A
C1425      H1428   1.082       .  S
C1426      C1427   1.377       .  A
C1426      N1612   1.422       .  S
C1427      H1429   1.082       .  S
Cu1430     N1433   2.048       .  S
Cu1431     N1441   2.058       .  S
Cu1432     N1434   2.092       .  S
Cu1432     N1440   2.092       .  S
N1433      N1434   1.322       .  A
N1433      C1437   1.340       .  A
N1434      C1435   1.348       .  A
C1435      C1436   1.386       .  A
C1435      H1438   1.082       .  S
C1436      C1437   1.375       .  A
C1437      H1439   1.082       .  S
N1440      N1441   1.322       .  A
N1440      C1444   1.346       .  A
N1441      C1442   1.341       .  A
C1442      C1443   1.382       .  A
C1442      H1445   1.080       .  S
C1443      C1444   1.391       .  A
C1443      C1550   1.510       .  S
C1444      H1446   1.082       .  S
N1447      N1448   1.321       .  A
N1447      C1451   1.341       .  A
N1447     Cu1455   2.062       .  S
N1448      C1449   1.343       .  A
N1448     Cu1454   2.072       .  S
C1449      C1450   1.387       .  A
C1449      H1452   1.082       .  S
C1450      C1451   1.384       .  A
C1450      C1472   1.512       .  S
C1451      H1453   1.079       .  S
Cu1454     N1457   2.072       .  S
Cu1455     N1465   2.062       .  S
Cu1456     N1458   2.059       .  S
Cu1456     N1464   2.060       .  S
N1457      N1458   1.321       .  A
N1457      C1461   1.346       .  A
N1458      C1459   1.341       .  A
C1459      C1460   1.379       .  A
C1459      H1462   1.078       .  S
C1460      C1461   1.384       .  A
C1461      H1463   1.082       .  S
N1464      N1465   1.321       .  A
N1464      C1468   1.341       .  A
N1465      C1466   1.345       .  A
C1466      C1467   1.380       .  A
C1466      H1469   1.082       .  S
C1467      C1468   1.380       .  A
C1467      N1744   1.425       .  S
C1468      H1470   1.082       .  S
C1471      C1473   1.536       .  S
C1471      C1475   1.533       .  S
C1471      C1474   1.531       .  S
C1472      C1476   1.541       .  S
C1472      C1478   1.532       .  S
C1472      C1477   1.528       .  S
C1473      C1481   1.383       .  A
C1473      C1476   1.415       .  A
C1474      C1485   1.376       .  A
C1474      C1477   1.388       .  A
C1475      C1489   1.381       .  A
C1475      C1478   1.403       .  A
C1476      C1479   1.383       .  A
C1477      C1483   1.367       .  A
C1478      C1486   1.380       .  A
C1479      N1480   1.345       .  A
C1479      H1492   1.080       .  S
N1480      C1481   1.348       .  A
C1481      H1482   1.082       .  S
C1483      N1484   1.356       .  A
C1483      H1493   1.083       .  S
N1484      C1485   1.357       .  A
N1484      C1958   1.429       .  S
C1485      H1491   1.082       .  S
C1486      N1487   1.348       .  A
C1486      H1488   1.081       .  S
N1487      C1489   1.347       .  A
N1487      C1514   1.424       .  S
C1489      H1490   1.083       .  S
N1494      C1498   1.353       .  A
N1494      C1495   1.355       .  A
N1494      C1961   1.427       .  S
C1495      C1496   1.381       .  A
C1496      C1497   1.384       .  A
C1496      H1499   1.082       .  S
C1497      C1498   1.385       .  A
C1497      H1500   1.082       .  S
N1501      N1502   1.319       .  A
N1501      C1505   1.345       .  A
N1501     Cu1509   2.087       .  S
N1502      C1503   1.342       .  A
N1502     Cu1508   2.046       .  S
C1503      C1504   1.382       .  A
C1503      H1506   1.077       .  S
C1504      C1505   1.391       .  A
C1504      C1549   1.512       .  S
C1505      H1507   1.082       .  S
Cu1508     N1511   2.044       .  S
Cu1509     N1519   2.088       .  S
Cu1510     N1512   2.078       .  S
Cu1510     N1518   2.077       .  S
N1511      N1512   1.323       .  A
N1511      C1515   1.341       .  A
N1512      C1513   1.345       .  A
C1513      C1514   1.382       .  A
C1513      H1516   1.082       .  S
C1514      C1515   1.373       .  A
C1515      H1517   1.082       .  S
N1518      N1519   1.324       .  A
N1518      C1522   1.348       .  A
N1519      C1520   1.344       .  A
C1520      C1521   1.384       .  A
C1520      H1523   1.082       .  S
C1521      C1522   1.382       .  A
C1522      H1524   1.082       .  S
N1525      N1526   1.324       .  A
N1525      C1529   1.351       .  A
N1525     Cu1533   2.101       .  S
N1526      C1527   1.345       .  A
N1526     Cu1532   2.067       .  S
C1527      C1528   1.377       .  A
C1527      H1530   1.082       .  S
C1528      C1529   1.385       .  A
C1528      N1558   1.434       .  S
C1529      H1531   1.082       .  S
Cu1532     N1535   2.066       .  S
Cu1533     N1543   2.103       .  S
Cu1534     N1536   2.110       .  S
Cu1534     N1542   2.111       .  S
N1535      N1536   1.323       .  A
N1535      C1539   1.345       .  A
N1536      C1537   1.351       .  A
C1537      C1538   1.391       .  A
C1537      H1540   1.082       .  S
C1538      C1539   1.380       .  A
C1539      H1541   1.082       .  S
N1542      N1543   1.325       .  A
N1542      C1546   1.351       .  A
N1543      C1544   1.350       .  A
C1544      C1545   1.390       .  A
C1544      H1547   1.081       .  S
C1545      C1546   1.392       .  A
C1545      C1843   1.530       .  S
C1546      H1548   1.082       .  S
C1549      C1551   1.538       .  S
C1549      C1553   1.554       .  S
C1549      C1552   1.527       .  S
C1550      C1554   1.539       .  S
C1550      C1556   1.537       .  S
C1550      C1555   1.534       .  S
C1551      C1559   1.380       .  A
C1551      C1554   1.391       .  A
C1552      C1563   1.372       .  A
C1552      C1555   1.386       .  A
C1553      C1567   1.394       .  A
C1553      C1556   1.411       .  A
C1554      C1557   1.384       .  A
C1555      C1561   1.377       .  A
C1556      C1564   1.377       .  A
C1557      N1558   1.357       .  A
C1557      H1570   1.081       .  S
N1558      C1559   1.357       .  A
C1559      H1560   1.082       .  S
C1561      N1562   1.359       .  A
C1561      H1571   1.082       .  S
N1562      C1563   1.356       .  A
N1562      C1944   1.435       .  S
C1563      H1569   1.081       .  S
C1564      N1565   1.349       .  A
C1564      H1566   1.082       .  S
N1565      C1567   1.355       .  A
C1567      H1568   1.079       .  S
N1572      C1576   1.357       .  A
N1572      C1573   1.358       .  A
N1572      C1947   1.434       .  S
C1573      C1574   1.380       .  A
C1574      C1575   1.381       .  A
C1574      H1577   1.082       .  S
C1575      C1576   1.385       .  A
C1575      H1578   1.082       .  S
N1579      N1580   1.323       .  A
N1579      C1583   1.346       .  A
N1579     Cu1587   2.085       .  S
N1580      C1581   1.347       .  A
N1580     Cu1586   2.078       .  S
C1581      C1582   1.382       .  A
C1581      H1584   1.082       .  S
C1582      C1583   1.383       .  A
C1583      H1585   1.082       .  S
Cu1586     N1589   2.079       .  S
Cu1587     N1597   2.085       .  S
Cu1588     N1590   2.074       .  S
Cu1588     N1596   2.073       .  S
N1589      N1590   1.321       .  A
N1589      C1593   1.347       .  A
N1590      C1591   1.344       .  A
C1591      C1592   1.386       .  A
C1591      H1594   1.082       .  S
C1592      C1593   1.388       .  A
C1592      C1604   1.514       .  S
C1593      H1595   1.080       .  S
N1596      N1597   1.324       .  A
N1596      C1600   1.347       .  A
N1597      C1598   1.347       .  A
C1598      C1599   1.383       .  A
C1598      H1601   1.082       .  S
C1599      C1600   1.379       .  A
C1599      N1859   1.434       .  S
C1600      H1602   1.082       .  S
C1603      C1605   1.528       .  S
C1603      C1607   1.541       .  S
C1603      C1606   1.524       .  S
C1604      C1608   1.525       .  S
C1604      C1610   1.537       .  S
C1604      C1609   1.543       .  S
C1605      C1613   1.372       .  A
C1605      C1608   1.391       .  A
C1606      C1617   1.366       .  A
C1606      C1609   1.390       .  A
C1607      C1621   1.381       .  A
C1607      C1610   1.418       .  A
C1608      C1611   1.373       .  A
C1609      C1615   1.383       .  A
C1610      C1618   1.375       .  A
C1611      N1612   1.353       .  A
C1611      H1624   1.082       .  S
N1612      C1613   1.355       .  A
C1613      H1614   1.083       .  S
C1615      N1616   1.361       .  A
C1615      H1625   1.082       .  S
N1616      C1617   1.351       .  A
N1616      C1930   1.433       .  S
C1617      H1623   1.080       .  S
C1618      N1619   1.349       .  A
C1618      H1620   1.081       .  S
N1619      C1621   1.351       .  A
N1619      C1636   1.430       .  S
C1621      H1622   1.081       .  S
N1626      C1630   1.357       .  A
N1626      C1627   1.359       .  A
N1626      C1933   1.429       .  S
C1627      C1628   1.384       .  A
C1628      C1629   1.385       .  A
C1628      H1631   1.082       .  S
C1629      C1630   1.382       .  A
C1629      H1632   1.082       .  S
N1633      N1634   1.321       .  A
N1633      C1637   1.341       .  A
N1633     Cu1641   2.050       .  S
N1634      C1635   1.342       .  A
N1634     Cu1640   2.056       .  S
C1635      C1636   1.381       .  A
C1635      H1638   1.082       .  S
C1636      C1637   1.380       .  A
C1637      H1639   1.081       .  S
Cu1640     N1643   2.055       .  S
Cu1641     N1651   2.046       .  S
Cu1642     N1644   2.087       .  S
Cu1642     N1650   2.088       .  S
N1643      N1644   1.321       .  A
N1643      C1647   1.341       .  A
N1644      C1645   1.349       .  A
C1645      C1646   1.388       .  A
C1645      H1648   1.080       .  S
C1646      C1647   1.378       .  A
C1647      H1649   1.082       .  S
N1650      N1651   1.323       .  A
N1650      C1654   1.346       .  A
N1651      C1652   1.342       .  A
C1652      C1653   1.374       .  A
C1652      H1655   1.082       .  S
C1653      C1654   1.386       .  A
C1653      N1690   1.431       .  S
C1654      H1656   1.082       .  S
N1657      N1658   1.324       .  A
N1657      C1661   1.351       .  A
N1657     Cu1665   2.100       .  S
N1658      C1659   1.349       .  A
N1658     Cu1664   2.081       .  S
C1659      C1660   1.382       .  A
C1659      H1662   1.082       .  S
C1660      C1661   1.385       .  A
C1660      N1805   1.440       .  S
C1661      H1663   1.082       .  S
Cu1664     N1667   2.081       .  S
Cu1665     N1675   2.101       .  S
Cu1666     N1668   2.120       .  S
Cu1666     N1674   2.120       .  S
N1667      N1668   1.325       .  A
N1667      C1671   1.348       .  A
N1668      C1669   1.353       .  A
C1669      C1670   1.391       .  A
C1669      H1672   1.082       .  S
C1670      C1671   1.381       .  A
C1671      H1673   1.081       .  S
N1674      N1675   1.324       .  A
N1674      C1678   1.353       .  A
N1675      C1676   1.349       .  A
C1676      C1677   1.391       .  A
C1676      H1679   1.082       .  S
C1677      C1678   1.396       .  A
C1677      C1682   1.533       .  S
C1678      H1680   1.082       .  S
C1681      C1683   1.538       .  S
C1681      C1685   1.539       .  S
C1681      C1684   1.540       .  S
C1682      C1686   1.535       .  S
C1682      C1688   1.542       .  S
C1682      C1687   1.540       .  S
C1683      C1691   1.386       .  A
C1683      C1686   1.414       .  A
C1684      C1695   1.376       .  A
C1684      C1687   1.397       .  A
C1685      C1699   1.387       .  A
C1685      C1688   1.409       .  A
C1686      C1689   1.381       .  A
C1687      C1693   1.377       .  A
C1688      C1696   1.387       .  A
C1689      N1690   1.346       .  A
C1689      H1702   1.081       .  S
N1690      C1691   1.350       .  A
C1691      H1692   1.082       .  S
C1693      N1694   1.361       .  A
C1693      H1703   1.083       .  S
N1694      C1695   1.359       .  A
N1694      C1916   1.439       .  S
C1695      H1701   1.081       .  S
C1696      N1697   1.353       .  A
C1696      H1698   1.082       .  S
N1697      C1699   1.349       .  A
C1699      H1700   1.081       .  S
N1704      C1708   1.351       .  A
N1704      C1705   1.355       .  A
N1704      C1919   1.441       .  S
C1705      C1706   1.380       .  A
C1706      C1707   1.378       .  A
C1706      H1709   1.082   1_545  S
C1707      C1708   1.383       .  A
C1707      H1710   1.082   1_545  S
N1711      N1712   1.323       .  A
N1711      C1715   1.342       .  A
N1711     Cu1719   2.064       .  S
N1712      C1713   1.352       .  A
N1712     Cu1718   2.115       .  S
C1713      C1714   1.395       .  A
C1713      H1716   1.082       .  S
C1714      C1715   1.382       .  A
C1714      C1735   1.524       .  S
C1715      H1717   1.080       .  S
Cu1718     N1721   2.116       .  S
Cu1719     N1729   2.064       .  S
Cu1720     N1722   2.064       .  S
Cu1720     N1728   2.065       .  S
N1721      N1722   1.324       .  A
N1721      C1725   1.351       .  A
N1722      C1723   1.344       .  A
C1723      C1724   1.378       .  A
C1723      H1726   1.082       .  S
C1724      C1725   1.391       .  A
C1725      H1727   1.082       .  S
N1728      N1729   1.322       .  A
N1728      C1732   1.344       .  A
N1729      C1730   1.345       .  A
C1730      C1731   1.379       .  A
C1730      H1733   1.082       .  S
C1731      C1732   1.379       .  A
C1731      N1852   1.426       .  S
C1732      H1734   1.082       .  S
C1735      C1737   1.524       .  S
C1735      C1739   1.543       .  S
C1735      C1738   1.524       .  S
C1736      C1740   1.533       .  S
C1736      C1742   1.539       .  S
C1736      C1741   1.554       .  S
C1737      C1745   1.368       .  A
C1737      C1740   1.393       .  A
C1738      C1749   1.368       .  A
C1738      C1741   1.397       .  A
C1739      C1753   1.385       .  A
C1739      C1742   1.414       .  A
C1740      C1743   1.379       .  A
C1741      C1747   1.384       .  A
C1742      C1750   1.378       .  A
C1743      N1744   1.356       .  A
C1743      H1756   1.082       .  S
N1744      C1745   1.354       .  A
C1745      H1746   1.083       .  S
C1747      N1748   1.365       .  A
C1747      H1757   1.080       .  S
N1748      C1749   1.353       .  A
N1748      C1902   1.439       .  S
C1749      H1755   1.081       .  S
C1750      N1751   1.350       .  A
C1750      H1752   1.082       .  S
N1751      C1753   1.351       .  A
N1751      C1768   1.434       .  S
C1753      H1754   1.081       .  S
N1758      C1762   1.355       .  A
N1758      C1759   1.355       .  A
N1758      C1905   1.432       .  S
C1759      C1760   1.383       .  A
C1760      C1761   1.382       .  A
C1760      H1763   1.082       .  S
C1761      C1762   1.382       .  A
C1761      H1764   1.082       .  S
N1765      N1766   1.321       .  A
N1765      C1769   1.346       .  A
N1765     Cu1773   2.071       .  S
N1766      C1767   1.341       .  A
N1766     Cu1772   2.053       .  S
C1767      C1768   1.380       .  A
C1767      H1770   1.081       .  S
C1768      C1769   1.385       .  A
C1769      H1771   1.082       .  S
Cu1772     N1775   2.053       .  S
Cu1773     N1783   2.070       .  S
Cu1774     N1776   2.099       .  S
Cu1774     N1782   2.102       .  S
N1775      N1776   1.320       .  A
N1775      C1779   1.338       .  A
N1776      C1777   1.353       .  A
C1777      C1778   1.393       .  A
C1777      H1780   1.081       .  S
C1778      C1779   1.379       .  A
C1779      H1781   1.082       .  S
N1782      N1783   1.326       .  A
N1782      C1786   1.348       .  A
N1783      C1784   1.345       .  A
C1784      C1785   1.377       .  A
C1784      H1787   1.082       .  S
C1785      C1786   1.387       .  A
C1785      N1798   1.434       .  S
C1786      H1788   1.082       .  S
C1789      C1791   1.540       .  S
C1789      C1793   1.547       .  S
C1789      C1792   1.548       .  S
C1789      C1832   1.521       .  S
C1790      C1794   1.529       .  S
C1790      C1796   1.544       .  S
C1790      C1795   1.529       .  S
C1791      C1799   1.387       .  A
C1791      C1794   1.394       .  A
C1792      C1803   1.389       .  A
C1792      C1795   1.394       .  A
C1793      C1807   1.388       .  A
C1793      C1796   1.413       .  A
C1794      C1797   1.379       .  A
C1795      C1801   1.366       .  A
C1796      C1804   1.388       .  A
C1797      N1798   1.351       .  A
C1797      H1810   1.081       .  S
N1798      C1799   1.356       .  A
C1799      H1800   1.082       .  S
C1801      N1802   1.356       .  A
C1801      H1811   1.083       .  S
N1802      C1803   1.364       .  A
N1802      C1888   1.439       .  S
C1803      H1809   1.081       .  S
C1804      N1805   1.352       .  A
C1804      H1806   1.082       .  S
N1805      C1807   1.354       .  A
C1807      H1808   1.082       .  S
N1812      C1816   1.354       .  A
N1812      C1813   1.353       .  A
N1812      C1891   1.438       .  S
C1813      C1814   1.383       .  A
C1814      C1815   1.378       .  A
C1814      H1817   1.082       .  S
C1815      C1816   1.380       .  A
C1815      H1818   1.082       .  S
N1819      N1820   1.321       .  A
N1819      C1823   1.345       .  A
N1819     Cu1827   2.063       .  S
N1820      C1821   1.342       .  A
N1820     Cu1826   2.063       .  S
C1821      C1822   1.379       .  A
C1821      H1824   1.082       .  S
C1822      C1823   1.379       .  A
C1823      H1825   1.082       .  S
Cu1826     N1829   2.064       .  S
Cu1827     N1837   2.063       .  S
Cu1828     N1830   2.130       .  S
Cu1828     N1836   2.129       .  S
N1829      N1830   1.324       .  A
N1829      C1833   1.346       .  A
N1830      C1831   1.351       .  A
C1831      C1832   1.397       .  A
C1831      H1834   1.081       .  S
C1832      C1833   1.382       .  A
C1833      H1835   1.082       .  S
N1836      N1837   1.323       .  A
N1836      C1840   1.355       .  A
N1837      C1838   1.342       .  A
C1838      C1839   1.382       .  A
C1838      H1841   1.082       .  S
C1839      C1840   1.400       .  A
C1839      C1844   1.528       .  S
C1840      H1842   1.080       .  S
C1843      C1845   1.536       .  S
C1843      C1847   1.544       .  S
C1843      C1846   1.534       .  S
C1844      C1848   1.538       .  S
C1844      C1850   1.540       .  S
C1844      C1849   1.540       .  S
C1845      C1853   1.378       .  A
C1845      C1848   1.407       .  A
C1846      C1857   1.374       .  A
C1846      C1849   1.393       .  A
C1847      C1861   1.387       .  A
C1847      C1850   1.411       .  A
C1848      C1851   1.382       .  A
C1849      C1855   1.380       .  A
C1850      C1858   1.381       .  A
C1851      N1852   1.352       .  A
C1851      H1864   1.082       .  S
N1852      C1853   1.351       .  A
C1853      H1854   1.083       .  S
C1855      N1856   1.360       .  A
C1855      H1865   1.081       .  S
N1856      C1857   1.357       .  A
N1856      C1874   1.437       .  S
C1857      H1863   1.082       .  S
C1858      N1859   1.349       .  A
C1858      H1860   1.080       .  S
N1859      C1861   1.353       .  A
C1861      H1862   1.082       .  S
N1866      C1870   1.352       .  A
N1866      C1867   1.353       .  A
N1866      C1877   1.439       .  S
C1867      C1868   1.381       .  A
C1868      C1869   1.379       .  A
C1868      H1871   1.082       .  S
C1869      C1870   1.383       .  A
C1869      H1872   1.082       .  S
C1873      C1874   1.403       .  A
C1873      C1878   1.400       .  A
C1873      H1880   1.082       .  S
C1874      C1875   1.410       .  A
C1875      C1876   1.400       .  A
C1875      N1882   1.428       .  S
C1876      C1877   1.402       .  A
C1876      H1881   1.082       .  S
C1877      C1878   1.407       .  A
C1878      N1879   1.428       .  S
N1879      O1883   1.261       .  A
N1879      O1884   1.261       .  A
N1882      O1886   1.262       .  A
N1882      O1885   1.262       .  A
C1887      C1888   1.403       .  A
C1887      C1892   1.395       .  A
C1887      H1894   1.082       .  S
C1888      C1889   1.411       .  A
C1889      C1890   1.407       .  A
C1889      N1896   1.427       .  S
C1890      C1891   1.402       .  A
C1890      H1895   1.082       .  S
C1891      C1892   1.406       .  A
C1892      N1893   1.428       .  S
N1893      O1897   1.262       .  A
N1893      O1898   1.262       .  A
N1896      O1900   1.262       .  A
N1896      O1899   1.262       .  A
C1901      C1902   1.402       .  A
C1901      C1906   1.397       .  A
C1901      H1908   1.082       .  S
C1902      C1903   1.417       .  A
C1903      C1904   1.401       .  A
C1903      N1910   1.429       .  S
C1904      C1905   1.397       .  A
C1904      H1909   1.082       .  S
C1905      C1906   1.406       .  A
C1906      N1907   1.427       .  S
N1907      O1911   1.262       .  A
N1907      O1912   1.262       .  A
N1910      O1914   1.262       .  A
N1910      O1913   1.262       .  A
C1915      C1916   1.404       .  A
C1915      C1920   1.403       .  A
C1915      H1922   1.082       .  S
C1916      C1917   1.411       .  A
C1917      C1918   1.399       .  A
C1917      N1924   1.428       .  S
C1918      C1919   1.400       .  A
C1918      H1923   1.082       .  S
C1919      C1920   1.409       .  A
C1920      N1921   1.428       .  S
N1921      O1925   1.261       .  A
N1921      O1926   1.262       .  A
N1924      O1928   1.262       .  A
N1924      O1927   1.262       .  A
C1929      C1930   1.401       .  A
C1929      C1934   1.399       .  A
C1929      H1936   1.082       .  S
C1930      C1931   1.413       .  A
C1931      C1932   1.395       .  A
C1931      N1938   1.429       .  S
C1932      C1933   1.396       .  A
C1932      H1937   1.082       .  S
C1933      C1934   1.406       .  A
C1934      N1935   1.427       .  S
N1935      O1939   1.262       .  A
N1935      O1940   1.262       .  A
N1938      O1942   1.262       .  A
N1938      O1941   1.262       .  A
C1943      C1944   1.404       .  A
C1943      C1948   1.401       .  A
C1943      H1950   1.082       .  S
C1944      C1945   1.411       .  A
C1945      C1946   1.394       .  A
C1945      N1952   1.429       .  S
C1946      C1947   1.399       .  A
C1946      H1951   1.082       .  S
C1947      C1948   1.407       .  A
C1948      N1949   1.429       .  S
N1949      O1953   1.261       .  A
N1949      O1954   1.261       .  A
N1952      O1956   1.262       .  A
N1952      O1955   1.262       .  A
C1957      C1958   1.399       .  A
C1957      C1962   1.391       .  A
C1957      H1964   1.082       .  S
C1958      C1959   1.410       .  A
C1959      C1960   1.400       .  A
C1959      N1966   1.427       .  S
C1960      C1961   1.398       .  A
C1960      H1965   1.082       .  S
C1961      C1962   1.405       .  A
C1962      N1963   1.428       .  S
N1963      O1967   1.262       .  A
N1963      O1968   1.262       .  A
N1966      O1970   1.262       .  A
N1966      O1969   1.262       .  A
C1971      C1972   1.403       .  A
C1971      C1976   1.394       .  A
C1971      H1978   1.082       .  S
C1972      C1973   1.415       .  A
C1973      C1974   1.404       .  A
C1973      N1980   1.428       .  S
C1974      C1975   1.399       .  A
C1974      H1979   1.082       .  S
C1975      C1976   1.405       .  A
C1976      N1977   1.428       .  S
N1977      O1981   1.262       .  A
N1977      O1982   1.262       .  A
N1980      O1984   1.262       .  A
N1980      O1983   1.262       .  A
C1985      C1986   1.402       .  A
C1985      C1990   1.400       .  A
C1985      H1992   1.085       .  S
C1986      C1987   1.413       .  A
C1987      C1988   1.396       .  A
C1987      N1994   1.429       .  S
C1988      C1989   1.399       .  A
C1988      H1993   1.084       .  S
C1989      C1990   1.409       .  A
C1990      N1991   1.430       .  S
N1991      O1995   1.261       .  A
N1991      O1996   1.261       .  A
N1994      O1998   1.262       .  A
N1994      O1997   1.262       .  A
C1999      C2000   1.401       .  A
C1999      C2004   1.399       .  A
C1999      H2006   1.082       .  S
C2000      C2001   1.406       .  A
C2001      C2002   1.401       .  A
C2001      N2008   1.428       .  S
C2002      C2003   1.404       .  A
C2002      H2007   1.082       .  S
C2003      C2004   1.411       .  A
C2004      N2005   1.428       .  S
N2005      O2009   1.262       .  A
N2005      O2010   1.262       .  A
N2008      O2012   1.261       .  A
N2008      O2011   1.261       .  A
C2013      C2014   1.403       .  A
C2013      C2018   1.395       .  A
C2013      H2020   1.082       .  S
C2014      C2015   1.414       .  A
C2015      C2016   1.405       .  A
C2015      N2022   1.428       .  S
C2016      C2017   1.400       .  A
C2016      H2021   1.082       .  S
C2017      C2018   1.405       .  A
C2018      N2019   1.427       .  S
N2019      O2023   1.262       .  A
N2019      O2024   1.262       .  A
N2022      O2026   1.262       .  A
N2022      O2025   1.262       .  A
C2027      C2028   1.402       .  A
C2027      C2032   1.406       .  A
C2027      H2034   1.082       .  S
C2028      C2029   1.406       .  A
C2029      C2030   1.396       .  A
C2029      N2036   1.428       .  S
C2030      C2031   1.403       .  A
C2030      H2035   1.082       .  S
C2031      C2032   1.410       .  A
C2032      N2033   1.427       .  S
N2033      O2037   1.262       .  A
N2033      O2038   1.262       .  A
N2036      O2040   1.262       .  A
N2036      O2039   1.262       .  A
C2041      C2042   1.399       .  A
C2041      C2046   1.402       .  A
C2041      H2048   1.082       .  S
C2042      C2043   1.405       .  A
C2043      C2044   1.392       .  A
C2043      N2050   1.428       .  S
C2044      C2045   1.402       .  A
C2044      H2049   1.082       .  S
C2045      C2046   1.412       .  A
C2046      N2047   1.428       .  S
N2047      O2051   1.262   1_455  A
N2047      O2052   1.262       .  A
N2050      O2054   1.262       .  A
N2050      O2053   1.262   1_455  A
C2055      C2056   1.396       .  A
C2055      C2060   1.392       .  A
C2055      H2062   1.082       .  S
C2056      C2057   1.405       .  A
C2057      C2058   1.400       .  A
C2057      N2064   1.428       .  S
C2058      C2059   1.405       .  A
C2058      H2063   1.082       .  S
C2059      C2060   1.414       .  A
C2060      N2061   1.429       .  S
N2061      O2065   1.262       .  A
N2061      O2066   1.262   1_554  A
N2064      O2068   1.261   1_554  A
N2064      O2067   1.262       .  A
C2069      C2070   1.406       .  A
C2069      C2074   1.393   1_655  A
C2069      H2076   1.082   1_655  S
C2070      C2071   1.413       .  A
C2071      C2072   1.408       .  A
C2071      N2078   1.427       .  S
C2072      C2073   1.403   1_655  A
C2072      H2077   1.082       .  S
C2073      C2074   1.403       .  A
C2074      N2075   1.428       .  S
N2075      O2079   1.262   1_455  A
N2075      O2080   1.262       .  A
N2078      O2082   1.262   1_655  A
N2078      O2081   1.262       .  A
C2083      C2084   1.405       .  A
C2083      C2088   1.397       .  A
C2083      H2090   1.082       .  S
C2084      C2085   1.413       .  A
C2085      C2086   1.405       .  A
C2085      N2092   1.428       .  S
C2086      C2087   1.402       .  A
C2086      H2091   1.082       .  S
C2087      C2088   1.405       .  A
C2088      N2089   1.428       .  S
N2089      O2093   1.262       .  A
N2089      O2094   1.262       .  A
N2092      O2096   1.262       .  A
N2092      O2095   1.262       .  A
C2097      C2098   1.406       .  A
C2097      C2102   1.392       .  A
C2097      H2104   1.082       .  S
C2098      C2099   1.411       .  A
C2099      C2100   1.407       .  A
C2099      N2106   1.427       .  S
C2100      C2101   1.403       .  A
C2100      H2105   1.082       .  S
C2101      C2102   1.402       .  A
C2102      N2103   1.428       .  S
N2103      O2107   1.262   1_455  A
N2103      O2108   1.262       .  A
N2106      O2110   1.262       .  A
N2106      O2109   1.262       .  A
C2111      C2112   1.402       .  A
C2111      C2116   1.400       .  A
C2111      H2118   1.082       .  S
C2112      C2113   1.415       .  A
C2113      C2114   1.401       .  A
C2113      N2120   1.429       .  S
C2114      C2115   1.397       .  A
C2114      H2119   1.082       .  S
C2115      C2116   1.407       .  A
C2116      N2117   1.427       .  S
N2117      O2121   1.262       .  A
N2117      O2122   1.262       .  A
N2120      O2124   1.262       .  A
N2120      O2123   1.262   1_556  A
C2125      C2126   1.400       .  A
C2125      C2130   1.394       .  A
C2125      H2132   1.082       .  S
C2126      C2127   1.408       .  A
C2127      C2128   1.399       .  A
C2127      N2134   1.427       .  S
C2128      C2129   1.400       .  A
C2128      H2133   1.081       .  S
C2129      C2130   1.409       .  A
C2130      N2131   1.428       .  S
N2131      O2135   1.262       .  A
N2131      O2136   1.262       .  A
N2134      O2138   1.262       .  A
N2134      O2137   1.262   1_565  A
C2139      C2140   1.403       .  A
C2139      C2144   1.401       .  A
C2139      H2146   1.082       .  S
C2140      C2141   1.410   1_556  A
C2141      C2142   1.399   1_554  A
C2141      N2148   1.428       .  S
C2142      C2143   1.400       .  A
C2142      H2147   1.082   1_556  S
C2143      C2144   1.408       .  A
C2144      N2145   1.428       .  S
N2145      O2149   1.262       .  A
N2145      O2150   1.262   1_556  A
N2148      O2152   1.262       .  A
N2148      O2151   1.262   1_554  A
C2153      C2154   1.402       .  A
C2153      C2158   1.398       .  A
C2153      H2160   1.082       .  S
C2154      C2155   1.412       .  A
C2155      C2156   1.404   1_556  A
C2155      N2162   1.428       .  S
C2156      C2157   1.400       .  A
C2156      H2161   1.082       .  S
C2157      C2158   1.407   1_554  A
C2158      N2159   1.428       .  S
N2159      O2163   1.262       .  A
N2159      O2164   1.262   1_556  A
N2162      O2166   1.262   1_556  A
N2162      O2165   1.262       .  A
C2167      C2168   1.400       .  A
C2167      C2172   1.402       .  A
C2167      H2174   1.082       .  S
C2168      C2169   1.407   1_455  A
C2169      C2170   1.396       .  A
C2169      N2176   1.428       .  S
C2170      C2171   1.401   1_655  A
C2170      H2175   1.082       .  S
C2171      C2172   1.410       .  A
C2172      N2173   1.428       .  S
N2173      O2177   1.262       .  A
N2173      O2178   1.262       .  A
N2176      O2180   1.262   1_655  A
N2176      O2179   1.262       .  A
C2181      C2182   1.405       .  A
C2181      C2186   1.404       .  A
C2181      H2188   1.082       .  S
C2182      C2183   1.408       .  A
C2183      C2184   1.397       .  A
C2183      N2190   1.428       .  S
C2184      C2185   1.400       .  A
C2184      H2189   1.082       .  S
C2185      C2186   1.410       .  A
C2186      N2187   1.430       .  S
N2187      O2191   1.261       .  A
N2187      O2192   1.261       .  A
N2190      O2194   1.262   1_565  A
N2190      O2193   1.262       .  A
C2195      C2196   1.401       .  A
C2195      C2200   1.406       .  A
C2195      H2202   1.082   1_545  S
C2196      C2197   1.405       .  A
C2197      C2198   1.398       .  A
C2197      N2204   1.428       .  S
C2198      C2199   1.405       .  A
C2198      H2203   1.082       .  S
C2199      C2200   1.412       .  A
C2200      N2201   1.427       .  S
N2201      O2205   1.262       .  A
N2201      O2206   1.262   1_545  A
N2204      O2208   1.262   1_545  A
N2204      O2207   1.262       .  A
