geometry optimzed in LAMMPS
_audit_creation_date              2020-12-01 
_audit_creation_method            'lammps2cif' 
_symmetry_space_group_name_H-M    'P1' 
_symmetry_Int_Tables_number       1 
_symmetry_cell_setting            triclinic 
loop_ 
_symmetry_equiv_pos_as_xyz 
  x,y,z 
_cell_length_a                    27.51776292 
_cell_length_b                    27.4735954501931 
_cell_length_c                    27.46843328603774 
_cell_angle_alpha                 90.14276695325837 
_cell_angle_beta                  89.98995885813129 
_cell_angle_gamma                 90.0442951908622 
loop_ 
_atom_site_label 
_atom_site_type_symbol 
_atom_site_fract_x 
_atom_site_fract_y 
_atom_site_fract_z 
_atom_site_charge 
C1          C  0.24950252  0.21198683  0.28131581     0.03600
C2          C  0.28467352  0.21198135  0.24433698    -0.12600
C3          C  0.28233655  0.24580928  0.20612286     0.01100
C4          C  0.24474519  0.28043302  0.20584540    -0.11100
C5          C  0.21032475  0.28175467  0.24347375     0.03600
C6          C  0.21276444  0.24733024  0.28095481    -0.10500
H7          H  0.31375915  0.18544310  0.24530804     0.09200
H8          H  0.24247521  0.30674069  0.17659810     0.06700
H9          H  0.18594913  0.24801779  0.30984508     0.06600
O10         O  0.95047497  0.54830637  0.20921019    -0.71300
O11         O  0.04384236  0.44653736  0.20604397    -0.71500
O12         O  0.94643658  0.45068879  0.20585592    -0.71400
O13         O  0.04769807  0.54441007  0.20939723    -0.71400
O14         O  0.04600473  0.54342872  0.28838254    -0.71400
O15         O  0.94781593  0.44678001  0.28474451    -0.71400
O16         O  0.04541678  0.44600178  0.28506893    -0.71300
O17         O  0.94856077  0.54390352  0.28810112    -0.71500
V18         V  0.99715535  0.49741589  0.20911788     1.35200
V19         V  0.99697712  0.49504663  0.28502152     1.35200
C20         C  0.93319624  0.56305366  0.24926637     0.77900
C21         C  0.06090181  0.42922381  0.24508772     0.78000
C22         C  0.92983043  0.43270756  0.24478999     0.77900
C23         C  0.06366777  0.56045895  0.24950636     0.77800
C24         C  0.74428774  0.77791010  0.29765862     0.03600
C25         C  0.78163980  0.74322115  0.29546876    -0.12600
C26         C  0.78308774  0.70896720  0.25764665     0.01100
C27         C  0.74719879  0.70956050  0.22158393    -0.11100
C28         C  0.70896479  0.74329554  0.22362704     0.03600
C29         C  0.70755957  0.77709248  0.26214446    -0.10500
H30         H  0.80993582  0.74313880  0.32291769     0.09200
H31         H  0.74920149  0.68360779  0.19188648     0.06700
H32         H  0.67837319  0.80342329  0.26404960     0.06600
O33         O  0.21714969  0.95093644  0.44730294    -0.71300
O34         O  0.21386371  0.04685532  0.54619025    -0.71500
O35         O  0.21501952  0.04834597  0.44858844    -0.71400
O36         O  0.21646632  0.94939442  0.54471198    -0.71400
O37         O  0.29525642  0.95469968  0.54855888    -0.71400
O38         O  0.29388291  0.04771014  0.44682050    -0.71400
O39         O  0.29256606  0.05190022  0.54416809    -0.71300
O40         O  0.29596395  0.94971291  0.45084879    -0.71500
V41         V  0.21715312  0.99893525  0.49669488     1.35200
V42         V  0.29295206  0.00091553  0.49748345     1.35200
C43         C  0.25693184  0.93311231  0.43293679     0.77900
C44         C  0.25253401  0.06628969  0.56163015     0.78000
C45         C  0.25425385  0.06473447  0.43106057     0.77900
C46         C  0.25611837  0.93610534  0.56362402     0.77800
O47         O  0.71006401  0.95296017  0.45455411    -0.71300
O48         O  0.71263544  0.05619410  0.54667680    -0.71500
O49         O  0.71103308  0.05055918  0.44920349    -0.71400
O50         O  0.71147054  0.95871271  0.55173496    -0.71400
O51         O  0.79028730  0.95706109  0.55021662    -0.71400
O52         O  0.78986760  0.05045083  0.44843803    -0.71400
O53         O  0.79148765  0.05443007  0.54620907    -0.71300
O54         O  0.78889784  0.95290577  0.45267972    -0.71500
V55         V  0.71283589  0.00464901  0.50049497     1.35200
V56         V  0.78861806  0.00379113  0.49937426     1.35200
C57         C  0.74911505  0.93516817  0.43800124     0.77900
C58         C  0.75256361  0.07248385  0.56266448     0.78000
C59         C  0.75027593  0.06631532  0.43127797     0.77900
C60         C  0.75082269  0.94179259  0.56823368     0.77800
C61         C  0.28391253  0.76068922  0.79365765     0.03600
C62         C  0.28614532  0.79610961  0.75702253    -0.12600
C63         C  0.25107283  0.79709053  0.71984692     0.01100
C64         C  0.21354504  0.76242190  0.72007902    -0.11100
C65         C  0.21127490  0.72675919  0.75637786     0.03600
C66         C  0.24646898  0.72619145  0.79316043    -0.10500
H67         H  0.31617125  0.82163144  0.75657517     0.09200
H68         H  0.18576370  0.76335495  0.69213904     0.06700
H69         H  0.24517710  0.69839792  0.82108861     0.06600
O70         O  0.95207794  0.55577377  0.71611015    -0.71300
O71         O  0.05195478  0.46113918  0.71462839    -0.71500
O72         O  0.95495988  0.45827635  0.71537544    -0.71400
O73         O  0.04943460  0.55879171  0.71574915    -0.71400
O74         O  0.04900567  0.55883704  0.79477170    -0.71400
O75         O  0.95600121  0.45713773  0.79436369    -0.71400
O76         O  0.05284600  0.46082770  0.79363381    -0.71300
O77         O  0.95173700  0.55485739  0.79508596    -0.71500
V78         V  0.00213685  0.50855116  0.71701360     1.35200
V79         V  0.00245457  0.50800640  0.79295377     1.35200
C80         C  0.93463393  0.57141048  0.75572500     0.77900
C81         C  0.06876274  0.44402276  0.75379410     0.78000
C82         C  0.93976557  0.44013625  0.75480353     0.77900
C83         C  0.06506596  0.57626138  0.75539759     0.77800
C84         C  0.79763830  0.28538489  0.75629308     0.03600
C85         C  0.79635248  0.25094345  0.71855350    -0.12600
C86         C  0.75891559  0.21648762  0.71598192     0.01100
C87         C  0.72220798  0.21690022  0.75133573    -0.11100
C88         C  0.72305048  0.25078533  0.78969731     0.03600
C89         C  0.76125793  0.28468605  0.79215976    -0.10500
H90         H  0.82422095  0.25140832  0.69066822     0.09200
H91         H  0.69280032  0.19077257  0.74880579     0.06700
H92         H  0.76228834  0.31107418  0.82147102     0.06600
O93         O  0.54794961  0.78729905  0.95608759    -0.71300
O94         O  0.45243910  0.78324551  0.05534940    -0.71500
O95         O  0.54948925  0.78325627  0.05371617    -0.71400
O96         O  0.45061346  0.78766890  0.95823872    -0.71400
O97         O  0.45053381  0.70874941  0.95411578    -0.71400
O98         O  0.54922801  0.70433495  0.05075069    -0.71400
O99         O  0.45196385  0.70432322  0.05179905    -0.71300
O100        O  0.54779655  0.70837682  0.95275786    -0.71500
V101        V  0.50019037  0.78380137  0.00575944     1.35200
V102        V  0.49994247  0.70793646  0.00239391     1.35200
C103        C  0.56391815  0.74848868  0.93713030     0.77900
C104        C  0.43580317  0.74315449  0.07047218     0.78000
C105        C  0.56572419  0.74319632  0.06924376     0.73900
C106        C  0.43364638  0.74907817  0.93983143     0.77800
O107        O  0.54825852  0.28740089  0.94598769    -0.71300
O108        O  0.44726640  0.28678915  0.03988133    -0.71500
O109        O  0.54440710  0.28629413  0.04339648    -0.71400
O110        O  0.45073815  0.28773663  0.94242642    -0.71400
O111        O  0.44943266  0.20876122  0.94254615    -0.71400
O112        O  0.54520422  0.20728625  0.04124799    -0.71400
O113        O  0.44770184  0.20782424  0.03996271    -0.71300
O114        O  0.54702907  0.20846256  0.94401332    -0.71500
V115        V  0.49765053  0.28553026  0.99284632     1.35200
V116        V  0.49731796  0.20960728  0.99190533     1.35200
C117        C  0.56521479  0.24803283  0.92919509     0.77900
C118        C  0.43049192  0.24728819  0.05635390     0.78000
C119        C  0.56099962  0.24653380  0.05932730     0.77900
C120        C  0.43353258  0.24841922  0.92575596     0.77800
C121        C  0.75064790  0.79353764  0.71764313     0.03600
C122        C  0.78633767  0.75700461  0.71808230    -0.12600
C123        C  0.78460868  0.71914923  0.75237365     0.01100
C124        C  0.74684717  0.71850104  0.78671972    -0.11100
C125        C  0.71127712  0.75503203  0.78723956     0.03600
C126        C  0.71325298  0.79220265  0.75241293    -0.10500
H127        H  0.81534218  0.75790790  0.69150173     0.09200
H128        H  0.74517089  0.68951985  0.81333212     0.06700
H129        H  0.68545068  0.82009382  0.75225135     0.06600
C130        C  0.78202273  0.28343394  0.24092141     0.03600
C131        C  0.74515751  0.28236475  0.20577716    -0.12600
C132        C  0.71105744  0.24451449  0.20516086     0.01100
C133        C  0.71358370  0.20768048  0.24024293    -0.11100
C134        C  0.74960618  0.20875993  0.27640299     0.03600
C135        C  0.78370203  0.24680228  0.27644503    -0.10500
H136        H  0.74274626  0.31113675  0.17897617     0.09200
H137        H  0.68696347  0.17859274  0.23979726     0.06700
H138        H  0.81134894  0.24824930  0.30447247     0.06600
C139        C  0.24448776  0.21573972  0.70918907     0.03600
C140        C  0.20801143  0.25142271  0.71058307    -0.12600
C141        C  0.20838847  0.28737742  0.74707078     0.01100
C142        C  0.24501988  0.28679128  0.78253897    -0.11100
C143        C  0.28171137  0.25153333  0.78119782     0.03600
C144        C  0.28118570  0.21617385  0.74445383    -0.10500
H145        H  0.17974163  0.25146736  0.68312815     0.09200
H146        H  0.24512915  0.31410179  0.81106519     0.06700
H147        H  0.30959876  0.18889735  0.74314301     0.06600
C148        C  0.29032408  0.73816217  0.22163165     0.03600
C149        C  0.25271777  0.70371317  0.22119711    -0.12600
C150        C  0.21581806  0.70527180  0.25645713     0.01100
C151        C  0.21648416  0.74210854  0.29199134    -0.11100
C152        C  0.25402905  0.77667738  0.29268751     0.03600
C153        C  0.29098964  0.77417459  0.25781944    -0.10500
H154        H  0.25175976  0.67604968  0.19300620     0.09200
H155        H  0.18768020  0.74414159  0.31880346     0.06700
H156        H  0.31988295  0.80102799  0.25828098     0.06600
C157        C  0.33409857  0.20711677  0.84000780    -0.20800
C158        C  0.32062947  0.25119359  0.81816751    -0.08900
C159        C  0.34503771  0.29423218  0.83134671     0.30000
C160        C  0.38186210  0.29299697  0.86621469    -0.20800
C161        C  0.39529288  0.24888250  0.88817294    -0.08900
C162        C  0.37115363  0.20575786  0.87451173     0.30000
F163        F  0.38270902  0.16228735  0.89482345    -0.19400
H164        H  0.31550773  0.17360137  0.83065526     0.18400
H165        H  0.40009544  0.32663711  0.87578617     0.18400
F166        F  0.33427817  0.33723264  0.80963503    -0.19400
C167        C  0.64290852  0.28580027  0.16264751    -0.20800
C168        C  0.67201208  0.24434127  0.16850014    -0.08900
C169        C  0.66384913  0.20334120  0.13898577     0.30000
C170        C  0.62719661  0.20411404  0.10391813    -0.20800
C171        C  0.59837450  0.24580963  0.09762096    -0.08900
C172        C  0.60628665  0.28664326  0.12758794     0.30000
F173        F  0.57827663  0.32709086  0.12357527    -0.19400
H174        H  0.64841532  0.31748537  0.18555231     0.18400
H175        H  0.62199894  0.17237917  0.08102030     0.18400
F176        F  0.69231809  0.16321612  0.14298323    -0.19400
C177        C  0.62375258  0.79424260  0.88655790    -0.20800
C178        C  0.60051140  0.75011440  0.89775425    -0.08900
C179        C  0.61284174  0.70801267  0.87114531     0.30000
C180        C  0.64824210  0.71015267  0.83480632    -0.20800
C181        C  0.67215669  0.75406235  0.82430393    -0.08900
C182        C  0.65934520  0.79629402  0.85038016     0.30000
F183        F  0.68248018  0.83917650  0.84230839    -0.19400
H184        H  0.61505475  0.82717127  0.90648677     0.18400
H185        H  0.65697073  0.67732053  0.81471936     0.18400
F186        F  0.59065783  0.66476155  0.87990614    -0.19400
C187        C  0.38707909  0.69757304  0.13209668    -0.20800
C188        C  0.39845321  0.74174663  0.10898772    -0.08900
C189        C  0.37385440  0.78436748  0.12317012     0.30000
C190        C  0.33873490  0.78260432  0.15962070    -0.20800
C191        C  0.32753200  0.73860399  0.18288192    -0.08900
C192        C  0.35202999  0.69592427  0.16887279     0.30000
F193        F  0.34311105  0.65301081  0.19159817    -0.19400
H194        H  0.40576513  0.66430196  0.12211121     0.18400
H195        H  0.31980405  0.81580070  0.16942000     0.18400
F196        F  0.38310116  0.82773731  0.10147917    -0.19400
C197        C  0.66598733  0.20617906  0.84462008    -0.20800
C198        C  0.68356541  0.25064669  0.82655286    -0.08900
C199        C  0.66195054  0.29422884  0.84270744     0.30000
C200        C  0.62362295  0.29300660  0.87606496    -0.20800
C201        C  0.60570013  0.24846968  0.89368552    -0.08900
C202        C  0.62737412  0.20491548  0.87755137     0.30000
F203        F  0.61153680  0.16097206  0.89354710    -0.19400
H204        H  0.68229175  0.17213018  0.83327487     0.18400
H205        H  0.60760040  0.32709476  0.88769081     0.18400
F206        F  0.67652572  0.33797486  0.82505589    -0.19400
C207        C  0.12814466  0.39234579  0.70857482    -0.20800
C208        C  0.10498372  0.40437413  0.75261507    -0.08900
C209        C  0.11527916  0.37679241  0.79447380     0.30000
C210        C  0.14817628  0.33821933  0.79207513    -0.20800
C211        C  0.17146912  0.32642646  0.74812482    -0.08900
C212        C  0.16118186  0.35385367  0.70626940     0.30000
F213        F  0.18426401  0.34456287  0.66356714    -0.19400
H214        H  0.12096629  0.41302030  0.67583315     0.18400
H215        H  0.15541623  0.31733605  0.82467919     0.18400
F216        F  0.09301305  0.38636400  0.83754168    -0.19400
C217        C  0.87613770  0.62421118  0.71095276    -0.20800
C218        C  0.89548521  0.60831767  0.75551585    -0.08900
C219        C  0.87726630  0.62834998  0.79905144     0.30000
C220        C  0.84145965  0.66433940  0.79764272    -0.20800
C221        C  0.82247696  0.68062612  0.75302674    -0.08900
C222        C  0.83983507  0.65963872  0.70958401     0.30000
F223        F  0.82093845  0.67228865  0.66576692    -0.19400
H224        H  0.88892110  0.60899450  0.67687265     0.18400
H225        H  0.82902278  0.67997787  0.83165495     0.18400
F226        F  0.89416238  0.61362774  0.84303750    -0.19400
C227        C  0.89462524  0.37434969  0.79808544    -0.20800
C228        C  0.90414441  0.39992578  0.75483335    -0.08900
C229        C  0.87942694  0.38652038  0.71202097     0.30000
C230        C  0.84526054  0.34903936  0.71292005    -0.20800
C231        C  0.83527929  0.32388415  0.75622845    -0.08900
C232        C  0.86069168  0.33650338  0.79883586     0.30000
F233        F  0.85350534  0.31167587  0.84089748    -0.19400
H234        H  0.91370343  0.38341421  0.83137429     0.18400
H235        H  0.82584190  0.34023942  0.67975755     0.18400
F236        F  0.88742176  0.41011847  0.66940281    -0.19400
C237        C  0.34852679  0.71478983  0.83696107    -0.20800
C238        C  0.32197857  0.75796286  0.83124903    -0.08900
C239        C  0.33180634  0.79787726  0.86165203     0.30000
C240        C  0.36810694  0.79461844  0.89700982    -0.20800
C241        C  0.39503717  0.75149579  0.90263921    -0.08900
C242        C  0.38486866  0.71147026  0.87223816     0.30000
F243        F  0.41067274  0.66953840  0.87572735    -0.19400
H244        H  0.34145662  0.68380307  0.81356178     0.18400
H245        H  0.37488323  0.82576859  0.92026463     0.18400
F246        F  0.30553917  0.83951081  0.85790202    -0.19400
C247        C  0.14573600  0.67984359  0.79772615    -0.20800
C248        C  0.17275011  0.68937317  0.75550359    -0.08900
C249        C  0.16359151  0.66216109  0.71309553     0.30000
C250        C  0.12809718  0.62584875  0.71320838    -0.20800
C251        C  0.10140699  0.61580594  0.75561414    -0.08900
C252        C  0.11028937  0.64348343  0.79792048     0.30000
F253        F  0.08447068  0.63589946  0.83933056    -0.19400
H254        H  0.15203368  0.70078841  0.83060766     0.18400
H255        H  0.12218076  0.60489313  0.68027592     0.18400
F256        F  0.19017930  0.66943943  0.67211013    -0.19400
C257        C  0.79360892  0.11593751  0.36865602    -0.20800
C258        C  0.74986728  0.10230717  0.39127361    -0.08900
C259        C  0.70608540  0.12335118  0.37512889     0.30000
C260        C  0.70643801  0.15760680  0.33771609    -0.20800
C261        C  0.75016375  0.17142801  0.31529163    -0.08900
C262        C  0.79386506  0.14993717  0.33090091     0.30000
F263        F  0.83670683  0.16085844  0.30897681    -0.19400
H264        H  0.82777232  0.09998732  0.37994421     0.18400
H265        H  0.67236055  0.17399003  0.32677544     0.18400
F266        F  0.66284836  0.11141929  0.39570632    -0.19400
C267        C  0.79418115  0.89159138  0.63033680    -0.20800
C268        C  0.75060373  0.90469875  0.60716881    -0.08900
C269        C  0.70717004  0.88147943  0.62114316     0.30000
C270        C  0.70769773  0.84551925  0.65689541    -0.20800
C271        C  0.75122851  0.83222795  0.67999688    -0.08900
C272        C  0.79458194  0.85597253  0.66660735     0.30000
F273        F  0.83715973  0.84574243  0.68931144    -0.19400
H274        H  0.82803492  0.90920138  0.62065297     0.18400
H275        H  0.67392092  0.82746876  0.66601482     0.18400
F276        F  0.66415658  0.89271493  0.59976328    -0.19400
C277        C  0.71452149  0.17287245  0.64965569    -0.20800
C278        C  0.75764997  0.18048695  0.67590810    -0.08900
C279        C  0.79915649  0.15318645  0.66395031     0.30000
C280        C  0.79732523  0.11885999  0.62648007    -0.20800
C281        C  0.75405876  0.11073814  0.60052267    -0.08900
C282        C  0.71257685  0.13832434  0.61230500     0.30000
F283        F  0.67025638  0.13229042  0.58763326    -0.19400
H284        H  0.68229501  0.19394283  0.65796632     0.18400
H285        H  0.82963828  0.09780050  0.61852458     0.18400
F286        F  0.84100171  0.15840620  0.68962272    -0.19400
C287        C  0.21551422  0.88532787  0.36793816    -0.20800
C288        C  0.25712239  0.89354366  0.39652046    -0.08900
C289        C  0.29764838  0.86287881  0.39073901     0.30000
C290        C  0.29621969  0.82465420  0.35714286    -0.20800
C291        C  0.25447445  0.81634690  0.32895076    -0.08900
C292        C  0.21418509  0.84719697  0.33430801     0.30000
F293        F  0.17412582  0.84135093  0.30603455    -0.19400
H294        H  0.18404619  0.90869656  0.37133680     0.18400
H295        H  0.32757822  0.80118454  0.35338325     0.18400
F296        F  0.33816614  0.86896895  0.41826711    -0.19400
C297        C  0.28887989  0.17023892  0.64467380    -0.20800
C298        C  0.24561468  0.17839759  0.67049741    -0.08900
C299        C  0.20475021  0.14942780  0.66049700     0.30000
C300        C  0.20728708  0.11309113  0.62494817    -0.20800
C301        C  0.25063934  0.10482667  0.59909212    -0.08900
C302        C  0.29157629  0.13377957  0.60938492     0.30000
F303        F  0.33407663  0.12737397  0.58511438    -0.19400
H304        H  0.32073763  0.19232983  0.65184892     0.18400
H305        H  0.17540292  0.09094922  0.61811728     0.18400
F306        F  0.16300246  0.15508921  0.68622582    -0.19400
C307        C  0.24591190  0.81781976  0.63145658    -0.20800
C308        C  0.25414920  0.83298440  0.67974746    -0.08900
C309        C  0.26426986  0.88241425  0.68905411     0.30000
C310        C  0.26586043  0.91572128  0.65071891    -0.20800
C311        C  0.25660408  0.90041678  0.60295407    -0.08900
C312        C  0.24676820  0.85132732  0.59334985     0.30000
F313        F  0.23845237  0.83583722  0.54711891    -0.19400
H314        H  0.23881194  0.77990571  0.62320561     0.18400
H315        H  0.27311213  0.95374373  0.65840439     0.18400
F316        F  0.27067902  0.89891519  0.73522746    -0.19400
C317        C  0.65301717  0.69918537  0.16667417    -0.20800
C318        C  0.67130167  0.74344216  0.18491536    -0.08900
C319        C  0.65449695  0.78732595  0.16468026     0.30000
C320        C  0.62031236  0.78667028  0.12720384    -0.20800
C321        C  0.60238824  0.74246289  0.10862248    -0.08900
C322        C  0.61913664  0.69852087  0.12879327     0.30000
F323        F  0.60283850  0.65488852  0.11219589    -0.19400
H324        H  0.66488700  0.66485515  0.18191967     0.18400
H325        H  0.60820301  0.82109874  0.11237299     0.18400
F326        F  0.67226370  0.83093541  0.17972711    -0.19400
C327        C  0.70484024  0.86873726  0.39431022    -0.20800
C328        C  0.74824246  0.89442892  0.40270462    -0.08900
C329        C  0.79050245  0.88043769  0.37738283     0.30000
C330        C  0.78890601  0.84213339  0.34394015    -0.20800
C331        C  0.74541937  0.81681219  0.33514403    -0.08900
C332        C  0.70337737  0.83015328  0.36107049     0.30000
F333        F  0.66112536  0.80534172  0.35502900    -0.19400
H334        H  0.67196038  0.87825584  0.41381041     0.18400
H335        H  0.82163525  0.83288961  0.32404438     0.18400
F336        F  0.83322735  0.90427581  0.38404725    -0.19400
C337        C  0.12600031  0.60821862  0.29519718    -0.20800
C338        C  0.10200286  0.59813350  0.25112465    -0.08900
C339        C  0.11508593  0.62435164  0.20913307     0.30000
C340        C  0.15184036  0.65934888  0.21130483    -0.20800
C341        C  0.17610734  0.66900222  0.25522969    -0.08900
C342        C  0.16277290  0.64324039  0.29730887     0.30000
F343        F  0.18634658  0.65074762  0.34008730    -0.19400
H344        H  0.11680437  0.58848543  0.32799040     0.18400
H345        H  0.16118789  0.67923014  0.17863695     0.18400
F346        F  0.09208919  0.61674211  0.16606204    -0.19400
C347        C  0.83060269  0.34612418  0.28515041    -0.20800
C348        C  0.81841767  0.32310862  0.24115342    -0.08900
C349        C  0.84195306  0.33756780  0.19804499     0.30000
C350        C  0.87758697  0.37378023  0.19937940    -0.20800
C351        C  0.89062709  0.39596587  0.24363782    -0.08900
C352        C  0.86632332  0.38213669  0.28655016     0.30000
F353        F  0.87677766  0.40342881  0.32994753    -0.19400
H354        H  0.81233828  0.33622158  0.31860492     0.18400
H355        H  0.89571580  0.38369145  0.16585680     0.18400
F356        F  0.83194876  0.31546477  0.15493034    -0.19400
C357        C  0.86551256  0.60494849  0.29229523    -0.20800
C358        C  0.89548129  0.60115253  0.25104120    -0.08900
C359        C  0.88854632  0.63358269  0.21205088     0.30000
C360        C  0.85197998  0.66879707  0.21445110    -0.20800
C361        C  0.82211072  0.67233169  0.25570639    -0.08900
C362        C  0.82903979  0.64010993  0.29462066     0.30000
F363        F  0.79952058  0.64170386  0.33419519    -0.19400
H364        H  0.86977566  0.58008902  0.32253853     0.18400
H365        H  0.84713285  0.69361796  0.18425172     0.18400
F366        F  0.91754981  0.63191595  0.17209943    -0.19400
C367        C  0.37119906  0.20302020  0.10915705    -0.20800
C368        C  0.39201480  0.24720672  0.09405280    -0.08900
C369        C  0.37594047  0.29087432  0.11568635     0.30000
C370        C  0.34028717  0.29000356  0.15184918    -0.20800
C371        C  0.31969460  0.24583167  0.16714699    -0.08900
C372        C  0.33531259  0.20221648  0.14516306     0.30000
F373        F  0.31513610  0.15888125  0.15755955    -0.19400
H374        H  0.38252307  0.16890138  0.09290669     0.18400
H375        H  0.32926264  0.32402923  0.16850401     0.18400
F376        F  0.39495492  0.33449978  0.10250329    -0.19400
C377        C  0.21048295  0.11179920  0.36725261    -0.20800
C378        C  0.25357582  0.10274201  0.39306931    -0.08900
C379        C  0.29538184  0.13027561  0.38211602     0.30000
C380        C  0.29385538  0.16581273  0.34579332    -0.20800
C381        C  0.25074310  0.17465225  0.31999328    -0.08900
C382        C  0.20902959  0.14723357  0.33095938     0.30000
F383        F  0.16722204  0.15367516  0.30556032    -0.19400
H384        H  0.17793765  0.09092281  0.37466889     0.18400
H385        H  0.32624742  0.18684659  0.33811719     0.18400
F386        F  0.33747255  0.12359395  0.40698302    -0.19400
C387        C  0.14128774  0.32494930  0.20342426    -0.20800
C388        C  0.17190949  0.31930393  0.24386726    -0.08900
C389        C  0.16559075  0.34964023  0.28462117     0.30000
C390        C  0.12911698  0.38495025  0.28483427    -0.20800
C391        C  0.09851081  0.39086910  0.24434518    -0.08900
C392        C  0.10472451  0.36030010  0.20360208     0.30000
F393        F  0.07486374  0.36376988  0.16443820    -0.19400
H394        H  0.14536997  0.30151846  0.17193321     0.18400
H395        H  0.12535164  0.40826795  0.31644534     0.18400
F396        F  0.19559228  0.34602908  0.32367660    -0.19400
loop_ 
_geom_bond_atom_site_label_1 
_geom_bond_atom_site_label_2 
_geom_bond_distance 
_geom_bond_site_symmetry_2 
_ccdc_geom_bond_type 
C1            C2   1.403       .  A
C1            C6   1.402       .  A
C1          C381   1.479       .  S
C2            C3   1.405       .  A
C2            H7   1.083       .  S
C3            C4   1.406       .  A
C3          C371   1.484       .  S
C4            C5   1.402       .  A
C4            H8   1.084       .  S
C5            C6   1.401       .  A
C5          C388   1.478       .  S
C6            H9   1.084       .  S
O10          V18   1.899       .  S
O10          C20   1.264       .  A
O11          V18   1.901   1_455  S
O11          C21   1.265       .  A
O12          V18   1.898       .  S
O12          C22   1.264       .  A
O13          V18   1.897   1_455  S
O13          C23   1.264       .  A
O14          V19   1.895   1_455  S
O14          C23   1.264       .  A
O15          V19   1.894       .  S
O15          C22   1.264       .  A
O16          V19   1.896   1_455  S
O16          C21   1.264       .  A
O17          V19   1.894       .  S
O17          C20   1.264       .  A
V18          V19   2.086       .  T
C20         C358   1.475       .  S
C21         C391   1.478       .  S
C22         C351   1.477       .  S
C23         C338   1.478       .  S
C24          C25   1.403       .  A
C24          C29   1.405       .  A
C24         C331   1.483       .  S
C25          C26   1.401       .  A
C25          H30   1.084       .  S
C26          C27   1.399       .  A
C26         C361   1.473       .  S
C27          C28   1.404       .  A
C27          H31   1.084       .  S
C28          C29   1.406       .  A
C28         C318   1.485       .  S
C29          H32   1.082       .  S
O33          V41   1.890       .  S
O33          C43   1.262       .  A
O34          V41   1.892   1_545  S
O34          C44   1.263       .  A
O35          V41   1.898   1_545  S
O35          C45   1.265       .  A
O36          V41   1.898       .  S
O36          C46   1.263       .  A
O37          V42   1.896   1_565  S
O37          C46   1.262       .  A
O38          V42   1.897       .  S
O38          C45   1.264       .  A
O39          V42   1.897       .  S
O39          C44   1.265       .  A
O40          V42   1.902   1_565  S
O40          C43   1.266       .  A
V41          V42   2.087   1_565  T
C43         C288   1.475       .  S
C44         C301   1.476       .  S
C45         C378   1.478       .  S
C46         C311   1.461       .  S
O47          V55   1.899   1_565  S
O47          C57   1.265       .  A
O48          V55   1.899       .  S
O48          C58   1.264       .  A
O49          V55   1.894       .  S
O49          C59   1.263       .  A
O50          V55   1.893   1_565  S
O50          C60   1.263       .  A
O51          V56   1.900   1_565  S
O51          C60   1.265       .  A
O52          V56   1.900       .  S
O52          C59   1.265       .  A
O53          V56   1.894       .  S
O53          C58   1.264       .  A
O54          V56   1.895   1_565  S
O54          C57   1.264       .  A
V55          V56   2.086       .  T
C57         C328   1.479       .  S
C58         C281   1.477       .  S
C59         C258   1.480       .  S
C60         C268   1.479       .  S
C61          C62   1.403       .  A
C61          C66   1.399       .  A
C61         C238   1.473       .  S
C62          C63   1.406       .  A
C62          H67   1.083       .  S
C63          C64   1.404       .  A
C63         C308   1.483       .  S
C64          C65   1.401       .  A
C64          H68   1.084       .  S
C65          C66   1.400       .  A
C65         C248   1.476       .  S
C66          H69   1.084       .  S
O70          V78   1.893   1_655  S
O70          C80   1.264       .  A
O71          V78   1.893       .  S
O71          C81   1.263       .  A
O72          V78   1.895   1_655  S
O72          C82   1.264       .  A
O73          V78   1.897       .  S
O73          C83   1.264       .  A
O74          V79   1.895       .  S
O74          C83   1.263       .  A
O75          V79   1.894   1_655  S
O75          C82   1.263       .  A
O76          V79   1.899       .  S
O76          C81   1.265       .  A
O77          V79   1.900   1_655  S
O77          C80   1.265       .  A
V78          V79   2.086       .  T
C80         C218   1.480       .  S
C81         C208   1.477       .  S
C82         C228   1.476       .  S
C83         C251   1.476       .  S
C84          C85   1.402       .  A
C84          C89   1.405       .  A
C84         C231   1.480       .  S
C85          C86   1.400       .  A
C85          H90   1.084       .  S
C86          C87   1.401       .  A
C86         C278   1.478       .  S
C87          C88   1.405       .  A
C87          H91   1.083       .  S
C88          C89   1.406       .  A
C88         C198   1.485       .  S
C89          H92   1.082       .  S
O93         V101   1.897   1_556  S
O93         C103   1.265       .  A
O94         V101   1.893       .  S
O94         C104   1.264       .  A
O95         V101   1.891       .  S
O95         C105   1.263       .  A
O96         V101   1.892   1_556  S
O96         C106   1.263       .  A
O97         V102   1.900   1_556  S
O97         C106   1.265       .  A
O98         V102   1.901       .  S
O98         C105   1.265       .  A
O99         V102   1.896       .  S
O99         C104   1.264       .  A
O100        V102   1.895   1_556  S
O100        C103   1.264       .  A
V101        V102   2.086       .  T
C103        C178   1.478       .  S
C104        C188   1.475       .  S
C105        C321   1.479       .  S
C106        C241   1.476       .  S
O107        V115   1.897       .  S
O107        C117   1.264       .  A
O108        V115   1.895   1_554  S
O108        C118   1.264       .  A
O109        V115   1.893   1_554  S
O109        C119   1.264       .  A
O110        V115   1.895       .  S
O110        C120   1.264       .  A
O111        V116   1.891       .  S
O111        C120   1.263       .  A
O112        V116   1.892   1_554  S
O112        C119   1.263       .  A
O113        V116   1.900   1_554  S
O113        C118   1.265       .  A
O114        V116   1.898       .  S
O114        C117   1.265       .  A
V115        V116   2.086       .  T
C117        C201   1.481       .  S
C118        C368   1.481       .  S
C119        C171   1.471       .  S
C120        C161   1.474       .  S
C121        C122   1.405       .  A
C121        C126   1.404       .  A
C121        C271   1.485       .  S
C122        C123   1.406       .  A
C122        H127   1.082       .  S
C123        C124   1.404       .  A
C123        C221   1.486       .  S
C124        C125   1.402       .  A
C124        H128   1.083       .  S
C125        C126   1.402       .  A
C125        C181   1.482       .  S
C126        H129   1.083       .  S
C130        C131   1.401       .  A
C130        C135   1.404       .  A
C130        C348   1.480       .  S
C131        C132   1.400       .  A
C131        H136   1.084       .  S
C132        C133   1.401       .  A
C132        C168   1.473       .  S
C133        C134   1.404       .  A
C133        H137   1.084       .  S
C134        C135   1.404       .  A
C134        C261   1.483       .  S
C135        H138   1.083       .  S
C139        C140   1.404       .  A
C139        C144   1.399       .  A
C139        C298   1.476       .  S
C140        C141   1.406       .  A
C140        H145   1.084       .  S
C141        C142   1.402       .  A
C141        C211   1.478       .  S
C142        C143   1.400       .  A
C142        H146   1.084       .  S
C143        C144   1.399       .  A
C143        C158   1.476       .  S
C144        H147   1.084       .  S
C148        C149   1.402       .  A
C148        C153   1.401       .  A
C148        C191   1.477       .  S
C149        C150   1.404       .  A
C149        H154   1.084       .  S
C150        C151   1.404       .  A
C150        C341   1.479       .  S
C151        C152   1.403       .  A
C151        H155   1.083       .  S
C152        C153   1.399       .  A
C152        C291   1.475       .  S
C153        H156   1.084       .  S
C157        C158   1.403       .  A
C157        C162   1.393       .  A
C157        H164   1.083       .  S
C158        C159   1.406       .  A
C159        C160   1.395       .  A
C159        F166   1.358       .  S
C160        C161   1.405       .  A
C160        H165   1.083       .  S
C161        C162   1.408       .  A
C162        F163   1.357       .  S
C167        C168   1.402       .  A
C167        C172   1.394       .  A
C167        H174   1.083       .  S
C168        C169   1.404       .  A
C169        C170   1.395       .  A
C169        F176   1.358       .  S
C170        C171   1.405       .  A
C170        H175   1.083       .  S
C171        C172   1.407       .  A
C172        F173   1.358       .  S
C177        C178   1.405       .  A
C177        C182   1.396       .  A
C177        H184   1.083       .  S
C178        C179   1.408       .  A
C179        C180   1.396       .  A
C179        F186   1.357       .  S
C180        C181   1.404       .  A
C180        H185   1.083       .  S
C181        C182   1.407       .  A
C182        F183   1.357       .  S
C187        C188   1.406       .  A
C187        C192   1.397       .  A
C187        H194   1.084       .  S
C188        C189   1.407       .  A
C189        C190   1.392       .  A
C189        F196   1.357       .  S
C190        C191   1.403       .  A
C190        H195   1.084       .  S
C191        C192   1.406       .  A
C192        F193   1.358       .  S
C197        C198   1.405       .  A
C197        C202   1.396       .  A
C197        H204   1.083       .  S
C198        C199   1.408       .  A
C199        C200   1.397       .  A
C199        F206   1.357       .  S
C200        C201   1.406       .  A
C200        H205   1.083       .  S
C201        C202   1.408       .  A
C202        F203   1.357       .  S
C207        C208   1.406       .  A
C207        C212   1.396       .  A
C207        H214   1.083       .  S
C208        C209   1.408       .  A
C209        C210   1.396       .  A
C209        F216   1.357       .  S
C210        C211   1.404       .  A
C210        H215   1.083       .  S
C211        C212   1.405       .  A
C212        F213   1.358       .  S
C217        C218   1.406       .  A
C217        C222   1.396       .  A
C217        H224   1.083       .  S
C218        C219   1.408       .  A
C219        C220   1.397       .  A
C219        F226   1.357       .  S
C220        C221   1.407       .  A
C220        H225   1.083       .  S
C221        C222   1.408       .  A
C222        F223   1.357       .  S
C227        C228   1.406       .  A
C227        C232   1.397       .  A
C227        H234   1.083       .  S
C228        C229   1.407       .  A
C229        C230   1.394       .  A
C229        F236   1.357       .  S
C230        C231   1.404       .  A
C230        H235   1.083       .  S
C231        C232   1.406       .  A
C232        F233   1.358       .  S
C237        C238   1.403       .  A
C237        C242   1.396       .  A
C237        H244   1.083       .  S
C238        C239   1.403       .  A
C239        C240   1.396       .  A
C239        F246   1.358       .  S
C240        C241   1.407       .  A
C240        H245   1.083       .  S
C241        C242   1.407       .  A
C242        F243   1.357       .  S
C247        C248   1.403       .  A
C247        C252   1.396       .  A
C247        H254   1.084       .  S
C248        C249   1.405       .  A
C249        C250   1.396       .  A
C249        F256   1.358       .  S
C250        C251   1.405       .  A
C250        H255   1.083       .  S
C251        C252   1.408       .  A
C252        F253   1.357       .  S
C257        C258   1.405       .  A
C257        C262   1.397       .  A
C257        H264   1.083       .  S
C258        C259   1.409       .  A
C259        C260   1.395       .  A
C259        F266   1.357       .  S
C260        C261   1.404       .  A
C260        H265   1.083       .  S
C261        C262   1.408       .  A
C262        F263   1.357       .  S
C267        C268   1.405       .  A
C267        C272   1.398       .  A
C267        H274   1.083       .  S
C268        C269   1.408       .  A
C269        C270   1.395       .  A
C269        F276   1.358       .  S
C270        C271   1.405       .  A
C270        H275   1.083       .  S
C271        C272   1.409       .  A
C272        F273   1.357       .  S
C277        C278   1.404       .  A
C277        C282   1.397       .  A
C277        H284   1.083       .  S
C278        C279   1.405       .  A
C279        C280   1.395       .  A
C279        F286   1.358       .  S
C280        C281   1.405       .  A
C280        H285   1.083       .  S
C281        C282   1.408       .  A
C282        F283   1.357       .  S
C287        C288   1.406       .  A
C287        C292   1.395       .  A
C287        H294   1.082       .  S
C288        C289   1.407       .  A
C289        C290   1.397       .  A
C289        F296   1.357       .  S
C290        C291   1.404       .  A
C290        H295   1.082       .  S
C291        C292   1.404       .  A
C292        F293   1.358       .  S
C297        C298   1.404       .  A
C297        C302   1.394       .  A
C297        H304   1.084       .  S
C298        C299   1.404       .  A
C299        C300   1.396       .  A
C299        F306   1.358       .  S
C300        C301   1.407       .  A
C300        H305   1.083       .  S
C301        C302   1.407       .  A
C302        F303   1.357       .  S
C307        C308   1.408       .  A
C307        C312   1.396       .  A
C307        H314   1.083       .  S
C308        C309   1.409       .  A
C309        C310   1.397       .  A
C309        F316   1.357       .  S
C310        C311   1.400       .  A
C310        H315   1.084       .  S
C311        C312   1.400       .  A
C312        F313   1.358       .  S
C317        C318   1.407       .  A
C317        C322   1.397       .  A
C317        H324   1.084       .  S
C318        C319   1.407       .  A
C319        C320   1.395       .  A
C319        F326   1.357       .  S
C320        C321   1.405       .  A
C320        H325   1.084       .  S
C321        C322   1.408       .  A
C322        F323   1.357       .  S
C327        C328   1.406       .  A
C327        C332   1.398       .  A
C327        H334   1.083       .  S
C328        C329   1.408       .  A
C329        C330   1.396       .  A
C329        F336   1.358       .  S
C330        C331   1.404       .  A
C330        H335   1.083       .  S
C331        C332   1.407       .  A
C332        F333   1.357       .  S
C337        C338   1.406       .  A
C337        C342   1.397       .  A
C337        H344   1.082       .  S
C338        C339   1.408       .  A
C339        C340   1.396       .  A
C339        F346   1.357       .  S
C340        C341   1.404       .  A
C340        H345   1.083       .  S
C341        C342   1.405       .  A
C342        F343   1.358       .  S
C347        C348   1.403       .  A
C347        C352   1.395       .  A
C347        H354   1.083       .  S
C348        C349   1.408       .  A
C349        C350   1.397       .  A
C349        F356   1.358       .  S
C350        C351   1.405       .  A
C350        H355   1.082       .  S
C351        C352   1.408       .  A
C352        F353   1.357       .  S
C357        C358   1.405       .  A
C357        C362   1.395       .  A
C357        H364   1.083       .  S
C358        C359   1.408       .  A
C359        C360   1.398       .  A
C359        F366   1.358       .  S
C360        C361   1.403       .  A
C360        H365   1.083       .  S
C361        C362   1.403       .  A
C362        F363   1.358       .  S
C367        C368   1.405       .  A
C367        C372   1.398       .  A
C367        H374   1.083       .  S
C368        C369   1.409       .  A
C369        C370   1.396       .  A
C369        F376   1.357       .  S
C370        C371   1.404       .  A
C370        H375   1.083       .  S
C371        C372   1.408       .  A
C372        F373   1.357       .  S
C377        C378   1.404       .  A
C377        C382   1.396       .  A
C377        H384   1.083       .  S
C378        C379   1.409       .  A
C379        C380   1.398       .  A
C379        F386   1.358       .  S
C380        C381   1.404       .  A
C380        H385   1.083       .  S
C381        C382   1.406       .  A
C382        F383   1.358       .  S
C387        C388   1.403       .  A
C387        C392   1.399       .  A
C387        H394   1.083       .  S
C388        C389   1.405       .  A
C389        C390   1.396       .  A
C389        F396   1.358       .  S
C390        C391   1.405       .  A
C390        H395   1.083       .  S
C391        C392   1.408       .  A
C392        F393   1.357       .  S
