geometry optimzed in LAMMPS
_audit_creation_date              2020-11-30 
_audit_creation_method            'lammps2cif' 
_symmetry_space_group_name_H-M    'P1' 
_symmetry_Int_Tables_number       1 
_symmetry_cell_setting            triclinic 
loop_ 
_symmetry_equiv_pos_as_xyz 
  x,y,z 
_cell_length_a                    39.94948326 
_cell_length_b                    39.954788448976664 
_cell_length_c                    24.04887667910466 
_cell_angle_alpha                 90.63128383711744 
_cell_angle_beta                  90.00831101596226 
_cell_angle_gamma                 90.01935187962968 
loop_ 
_atom_site_label 
_atom_site_type_symbol 
_atom_site_fract_x 
_atom_site_fract_y 
_atom_site_fract_z 
_atom_site_charge 
O1          O  0.26976220  0.18928783  0.33989743    -0.78200
O2          O  0.26888210  0.18786215  0.65881454    -0.79700
O3          O  0.32551179  0.15735114  0.50420364    -0.76800
O4          O  0.21872443  0.15340955  0.50004222    -0.75100
O5          O  0.17614487  0.19141342  0.50299743    -0.76900
O6          O  0.36411488  0.19941865  0.50386350    -0.77900
O7          O  0.26968855  0.15176628  0.58393489    -0.79200
O8          O  0.27262740  0.15253258  0.41247783    -0.79500
Eu9        Eu  0.27089098  0.18409549  0.49893341     2.39200
O10         O  0.23670693  0.21545575  0.55953381    -0.87000
O11         O  0.30257785  0.21841513  0.44001544    -0.90600
C12         C  0.27158601  0.15883627  0.36036229     1.04100
C13         C  0.26908924  0.15761001  0.63650026     1.03900
C14         C  0.35559226  0.16852495  0.50670495     1.03900
C15         C  0.18772945  0.16136147  0.50258653     1.01700
H16         H  0.31752621  0.20382220  0.58136169     0.31500
O17         O  0.30286728  0.21774645  0.55966102    -0.99400
H18         H  0.22199789  0.20101511  0.41858357     0.31500
O19         O  0.23594757  0.21582820  0.44055163    -1.01900
O20         O  0.26894239  0.30982272  0.66209513    -0.79100
O21         O  0.26695462  0.31141210  0.34284177    -0.78700
O22         O  0.36654792  0.25242825  0.58623044    -0.77100
O23         O  0.17141310  0.24492498  0.58867259    -0.80500
O24         O  0.16953005  0.24939989  0.41627558    -0.78300
O25         O  0.36586667  0.25368067  0.41488065    -0.77000
O26         O  0.31762175  0.34611538  0.51643226    -0.78500
O27         O  0.21038470  0.34235745  0.51247260    -0.80400
O28         O  0.35978805  0.30766910  0.51533787    -0.77200
O29         O  0.17172655  0.30031951  0.51357293    -0.79800
O30         O  0.33017371  0.25040074  0.66005596    -0.75600
O31         O  0.32905040  0.25137069  0.34153524    -0.75600
O32         O  0.20617997  0.25062712  0.34265162    -0.75200
O33         O  0.20846642  0.24714115  0.66173759    -0.78700
O34         O  0.26619662  0.34658205  0.58942191    -0.78200
O35         O  0.26516285  0.34795157  0.41718315    -0.76500
Eu36       Eu  0.26884269  0.24901081  0.62260240     2.39800
Eu37       Eu  0.26780841  0.25043322  0.37960216     2.39600
Eu38       Eu  0.33426023  0.25255042  0.50077153     2.38400
Eu39       Eu  0.20179007  0.24729008  0.50166539     2.39900
Eu40       Eu  0.26520974  0.31582310  0.50251662     2.39800
O41         O  0.23304748  0.28197921  0.44220613    -0.90900
O42         O  0.29929172  0.28331541  0.56025031    -0.89800
C43         C  0.26793753  0.34017871  0.64140690     1.04300
C44         C  0.26607589  0.34177229  0.36468807     1.03000
C45         C  0.36052572  0.25148001  0.63859259     1.02400
C46         C  0.17807768  0.24565655  0.64083572     1.04400
C47         C  0.17572656  0.25040461  0.36395673     1.03300
C48         C  0.35952697  0.25256817  0.36261894     1.02200
C49         C  0.34842483  0.33756839  0.52154512     1.02200
C50         C  0.18043484  0.33119723  0.51810487     1.04800
H51         H  0.31415425  0.30002349  0.42111439     0.32200
O52         O  0.30016118  0.28489797  0.44184246    -1.03100
H53         H  0.21990169  0.29453350  0.58525316     0.34200
O54         O  0.23428500  0.28096823  0.56196309    -1.05600
N55         N  0.02537272  0.04321325  0.59990671    -0.34700
N56         N  0.06896284  0.49194342  0.64835004    -0.55200
N57         N  0.01395596  0.44504957  0.65619544    -0.34700
N58         N  0.46933771  0.50674022  0.64140911    -0.55200
C59         C  0.05234481  0.05364565  0.57103289     0.28900
C60         C  0.49614692  0.07717185  0.64064315     0.28900
C61         C  0.03965827  0.42370038  0.64626180     0.28900
C62         C  0.48968119  0.43611107  0.62728190     0.28900
C63         C  0.09228971  0.01059008  0.60232822     0.37500
C64         C  0.08629613  0.46397646  0.66026154     0.37500
C65         C  0.44705730  0.03820787  0.64307915     0.37500
C66         C  0.44767626  0.48086881  0.64368627     0.37500
C67         C  0.04348312  0.08006120  0.53708357    -0.19900
C68         C  0.50981711  0.10858379  0.63191718    -0.19900
C69         C  0.02730294  0.39303236  0.62810549    -0.19900
C70         C  0.49922519  0.40606718  0.60261256    -0.19900
C71         C  0.12410038  0.99835080  0.61246654    -0.21000
C72         C  0.11976587  0.47164465  0.66888735    -0.21000
C73         C  0.41279672  0.03259539  0.64297539    -0.21000
C74         C  0.41519873  0.49257630  0.64960628    -0.21000
C75         C  0.08503827  0.04122885  0.57704577    -0.16400
C76         C  0.46197025  0.06948802  0.63322795    -0.16400
C77         C  0.45632999  0.44759648  0.63054834    -0.16300
C78         C  0.07402067  0.43154654  0.65006352    -0.16300
H79         H  0.05948171  0.09405273  0.50942773     0.16600
H80         H  0.49672683  0.13140043  0.62156116     0.16600
H81         H  0.04140677  0.37083219  0.61691723     0.16600
H82         H  0.48327608  0.38729166  0.58353677     0.16600
H83         H  0.14776229  0.01081892  0.60546571     0.14800
H84         H  0.14005722  0.45431389  0.67639254     0.14800
H85         H  0.39304813  0.05103965  0.63998349     0.14800
H86         H  0.39238662  0.47796296  0.65049585     0.14800
H87         H  0.02539836  0.02657923  0.63285521     0.28100
H88         H  0.01546837  0.46898419  0.67338725     0.28100
O89         O  0.51992579  0.43774453  0.84236482    -0.78200
O90         O  0.52025104  0.43746989  0.16164488    -0.79700
O91         O  0.07535649  0.40519485  0.98514838    -0.76800
O92         O  0.46566108  0.40413930  0.99910801    -0.75100
O93         O  0.42524843  0.44441622  0.00197215    -0.76900
O94         O  0.11504734  0.44615828  0.98182027    -0.77900
O95         O  0.52107894  0.40064467  0.08755347    -0.79200
O96         O  0.51823251  0.40094877  0.91505463    -0.79500
Eu97       Eu  0.51959823  0.43242587  0.00194608     2.39200
O98         O  0.48733821  0.46571269  0.06275523    -0.87000
O99         O  0.05388555  0.46674778  0.93305648    -0.90600
C100        C  0.51915531  0.40729033  0.86288957     1.04100
C101        C  0.52055301  0.40700909  0.14000802     1.03900
C102        C  0.10548335  0.41551671  0.97935488     1.03900
C103        C  0.43510762  0.41394657  0.99840666     1.01700
H104        H  0.06890353  0.45226996  0.07327214     0.31500
O105        O  0.05432509  0.46664435  0.05219300    -0.99400
H106        H  0.47188547  0.45113489  0.92124887     0.31500
O107        O  0.48624669  0.46546920  0.94332690    -1.01900
O108        O  0.52145779  0.06150291  0.15885732    -0.79100
O109        O  0.52019136  0.06033372  0.83782653    -0.78700
O110        O  0.11879086  0.49867623  0.07834427    -0.77100
O111        O  0.42278558  0.49755273  0.09079750    -0.80500
O112        O  0.42147176  0.00010351  0.91223594    -0.78300
O113        O  0.11829954  0.99949067  0.91096759    -0.77000
O114        O  0.07436753  0.09555189  0.98965521    -0.78500
O115        O  0.46799769  0.09587268  0.99291031    -0.80400
O116        O  0.11524374  0.05574781  0.98897630    -0.77200
O117        O  0.42709644  0.05614171  0.98792824    -0.79800
O118        O  0.08195670  0.49872505  0.15179750    -0.75600
O119        O  0.08143300  0.99835098  0.83766449    -0.75600
O120        O  0.45803683  0.99945462  0.83853167    -0.75200
O121        O  0.45994774  0.49781783  0.16380123    -0.78700
O122        O  0.52202539  0.09827514  0.08608846    -0.78200
O123        O  0.52066482  0.09724313  0.91180757    -0.76500
Eu124      Eu  0.52109096  0.49864199  0.12501243     2.39800
Eu125      Eu  0.51962088  0.99972586  0.87582852     2.39600
Eu126      Eu  0.08687099  0.49997928  0.99255223     2.38400
Eu127      Eu  0.45347737  0.49827049  0.00414378     2.39900
Eu128      Eu  0.52063573  0.06667782  0.99888141     2.39800
O129        O  0.48746171  0.03356655  0.93867009    -0.90900
O130        O  0.05375620  0.03476618  0.05777671    -0.89800
C131        C  0.52195628  0.09197173  0.13835951     1.04300
C132        C  0.52057298  0.09077471  0.85936488     1.03000
C133        C  0.11245299  0.49831633  0.13065474     1.02400
C134        C  0.42938161  0.49746392  0.14295079     1.04400
C135        C  0.42758535  0.99955656  0.85981715     1.03300
C136        C  0.11184892  0.99843606  0.85867671     1.02200
C137        C  0.10501264  0.08613324  0.98589482     1.02200
C138        C  0.43760343  0.08654192  0.98666904     1.04800
H139        H  0.06776509  0.04759432  0.91504918     0.32200
O140        O  0.05373868  0.03357420  0.93770495    -1.03100
H141        H  0.47275028  0.04876973  0.08021256     0.34200
O142        O  0.48708768  0.03420329  0.05849490    -1.05600
N143        N  0.27109452  0.30837651  0.84248397    -0.34700
N144        N  0.22263675  0.25511829  0.86201352    -0.55200
N145        N  0.27484393  0.20668030  0.88092351    -0.34700
N146        N  0.32313765  0.25790435  0.86035374    -0.55200
C147        C  0.24309468  0.32639234  0.85259828     0.28900
C148        C  0.29722777  0.32788067  0.85802111     0.28900
C149        C  0.24865863  0.19120908  0.90516883     0.28900
C150        C  0.30287777  0.19203366  0.90040195     0.28900
C151        C  0.20172405  0.27990715  0.84714053     0.37500
C152        C  0.20340579  0.22783529  0.87005338     0.37500
C153        C  0.34189650  0.28506513  0.85003104     0.37500
C154        C  0.34438050  0.23179267  0.86261931     0.37500
C155        C  0.25170820  0.35856963  0.86982146    -0.19900
C156        C  0.28587832  0.35939486  0.87371525    -0.19900
C157        C  0.26012811  0.16588551  0.93925960    -0.19900
C158        C  0.29437763  0.16634029  0.93615580    -0.19900
C159        C  0.16913382  0.26799195  0.84384561    -0.21000
C160        C  0.17019489  0.23497024  0.85855774    -0.21000
C161        C  0.37520911  0.27608198  0.84366037    -0.21000
C162        C  0.37675629  0.24210880  0.85101658    -0.21000
C163        C  0.21007534  0.31395145  0.85159264    -0.16400
C164        C  0.33085030  0.31762966  0.86139643    -0.16400
C165        C  0.33587231  0.20104977  0.88646237    -0.16300
C166        C  0.21469432  0.19853068  0.89583963    -0.16300
H167        H  0.23508397  0.37889061  0.88127024     0.16600
H168        H  0.30060456  0.38049050  0.88825328     0.16600
H169        H  0.24538393  0.14889475  0.96403109     0.16600
H170        H  0.31105563  0.14983725  0.95832979     0.16600
H171        H  0.14665554  0.28233521  0.83607238     0.14800
H172        H  0.14875078  0.21872591  0.86367060     0.14800
H173        H  0.39638804  0.29267652  0.83850198     0.14800
H174        H  0.39940991  0.22729119  0.85257940     0.14800
H175        H  0.27218454  0.28409925  0.82648388     0.28100
H176        H  0.27362122  0.22406829  0.84911759     0.26700
C177        C  0.01760586  0.25246515  0.25043902    -0.00500
C178        C  0.26976274  0.49771673  0.24713323    -0.00500
C179        C  0.51894522  0.24876104  0.75045318    -0.00500
C180        C  0.27121065  0.49928744  0.74555392    -0.00500
C181        C  0.23772240  0.49708160  0.21292523    -0.16600
C182        C  0.20827453  0.49674198  0.19663390     0.07500
C183        C  0.17270772  0.49682254  0.18152750     0.09400
C184        C  0.14328851  0.49734356  0.16520164    -0.17400
C185        C  0.30281123  0.49638046  0.21598020    -0.16600
C186        C  0.33279901  0.49615771  0.20291416     0.07500
C187        C  0.36880437  0.49648639  0.19153697     0.09400
C188        C  0.39857976  0.49693793  0.17732679    -0.17400
C189        C  0.51957431  0.28222900  0.22142497    -0.16600
C190        C  0.51978573  0.31159759  0.20547381     0.07500
C191        C  0.51999184  0.34703242  0.19055857     0.09400
C192        C  0.52023384  0.37631213  0.17424696    -0.17400
C193        C  0.52207022  0.12274752  0.17375781    -0.16600
C194        C  0.52164813  0.15207766  0.19111524     0.07500
C195        C  0.52073168  0.18764711  0.20689000     0.09400
C196        C  0.51984995  0.21727936  0.22275634    -0.17400
C197        C  0.18448995  0.33562257  0.87341784    -0.16600
C198        C  0.16633799  0.35245494  0.90171341     0.07500
C199        C  0.14718414  0.37237931  0.93760876     0.09400
C200        C  0.12952958  0.39128063  0.96295167    -0.17400
C201        C  0.41037779  0.38954561  0.98591456    -0.16600
C202        C  0.39106521  0.37174798  0.96169844     0.07500
C203        C  0.37077598  0.35395159  0.92436742     0.09400
C204        C  0.35355281  0.33876423  0.89204921    -0.17400
C205        C  0.36221413  0.17966038  0.90587331    -0.16600
C206        C  0.38044577  0.15980755  0.92729474     0.07500
C207        C  0.39846451  0.13456182  0.95377492     0.09400
C208        C  0.41449413  0.11214929  0.97293676    -0.17400
C209        C  0.12930439  0.11124189  0.97404214    -0.16600
C210        C  0.14872847  0.13210605  0.95860153     0.07500
C211        C  0.17084391  0.15595951  0.93700656     0.09400
C212        C  0.19017283  0.17568842  0.91768381    -0.17400
C213        C  0.39661765  0.99907069  0.82531047    -0.16600
C214        C  0.36718526  0.99892713  0.80885332     0.07500
C215        C  0.33155393  0.99898656  0.79391517     0.09400
C216        C  0.30195567  0.99911691  0.77831510    -0.17400
C217        C  0.23691935  0.99889322  0.77833722    -0.16600
C218        C  0.20729614  0.99827391  0.79330118     0.07500
C219        C  0.17172408  0.99766592  0.80746281     0.09400
C220        C  0.14239834  0.99762867  0.82382155    -0.17400
C221        C  0.51887134  0.21615211  0.78229901    -0.16600
C222        C  0.51960808  0.18643710  0.79634924     0.07500
C223        C  0.52049209  0.15077121  0.80946962     0.09400
C224        C  0.52078966  0.12137548  0.82506634    -0.17400
C225        C  0.51881764  0.28127644  0.78370606    -0.16600
C226        C  0.51895929  0.31106712  0.79849346     0.07500
C227        C  0.51920902  0.34688879  0.81203993     0.09400
C228        C  0.51931239  0.37647740  0.82786448    -0.17400
C229        C  0.48658402  0.24903319  0.71703432    -0.16600
C230        C  0.45689930  0.24973604  0.70195016     0.07500
C231        C  0.42113031  0.25065111  0.68821643     0.09400
C232        C  0.39155260  0.25120610  0.67269388    -0.17400
C233        C  0.05279275  0.24707331  0.71594397    -0.16600
C234        C  0.08247546  0.24614859  0.70204631     0.07500
C235        C  0.11817469  0.24544575  0.69027331     0.09400
C236        C  0.14769031  0.24527012  0.67550504    -0.17400
C237        C  0.26876870  0.12656649  0.66992015    -0.16600
C238        C  0.26874863  0.09706624  0.68522285     0.07500
C239        C  0.26890413  0.06137998  0.69872197     0.09400
C240        C  0.26911884  0.03172940  0.71336375    -0.17400
C241        C  0.27110100  0.46672390  0.71298566    -0.16600
C242        C  0.27059498  0.43676018  0.69994302     0.07500
C243        C  0.26979612  0.40077110  0.68949702     0.09400
C244        C  0.26901753  0.37093939  0.67582520    -0.17400
C245        C  0.38134567  0.14535944  0.51970660    -0.16600
C246        C  0.40201910  0.12839891  0.54195265     0.07500
C247        C  0.42411687  0.11031331  0.57542066     0.09400
C248        C  0.44161029  0.09358502  0.60462831    -0.17400
C249        C  0.11183281  0.06124352  0.55504800    -0.16600
C250        C  0.13026914  0.08217662  0.53691596     0.07500
C251        C  0.14867198  0.10987565  0.51878992     0.09400
C252        C  0.16489652  0.13423099  0.50806762    -0.17400
C253        C  0.09758308  0.40741513  0.62789699    -0.16600
C254        C  0.11592787  0.39013715  0.60021134     0.07500
C255        C  0.13672880  0.37142177  0.56432773     0.09400
C256        C  0.15563886  0.35425911  0.53755655    -0.17400
C257        C  0.37140404  0.36297763  0.53947831    -0.16600
C258        C  0.38953719  0.38346645  0.56086502     0.07500
C259        C  0.41070143  0.40644810  0.58852105     0.09400
C260        C  0.43023308  0.42541452  0.61040282    -0.17400
C261        C  0.05002442  0.25280106  0.28366044    -0.16600
C262        C  0.07962215  0.25258212  0.29919762     0.07500
C263        C  0.11528883  0.25199595  0.31364940     0.09400
C264        C  0.14478110  0.25134917  0.32962919    -0.17400
C265        C  0.39041803  0.25244718  0.32825470    -0.16600
C266        C  0.42005959  0.25215799  0.31309277     0.07500
C267        C  0.45592887  0.25154259  0.30015740     0.09400
C268        C  0.48579425  0.25087787  0.28614267    -0.17400
C269        C  0.26873376  0.46619805  0.28179954    -0.16600
C270        C  0.26789738  0.43700370  0.29848423     0.07500
C271        C  0.26703904  0.40170310  0.31402736     0.09400
C272        C  0.26648205  0.37250134  0.33060798    -0.17400
C273        C  0.27184641  0.03241874  0.28239640    -0.16600
C274        C  0.27250902  0.06232472  0.29673413     0.07500
C275        C  0.27262949  0.09825257  0.30993518     0.09400
C276        C  0.27226817  0.12792924  0.32546247    -0.17400
O277        O  0.27042984  0.68781718  0.33748369    -0.78200
O278        O  0.27012229  0.68715006  0.65734658    -0.79700
O279        O  0.32681747  0.65627123  0.50211272    -0.76800
O280        O  0.22101941  0.64970274  0.50721581    -0.75100
O281        O  0.17790264  0.68692099  0.51103868    -0.76900
O282        O  0.36479638  0.69895575  0.50325968    -0.77900
O283        O  0.27202405  0.65072889  0.58282913    -0.79200
O284        O  0.27249114  0.65078709  0.40986692    -0.79500
Eu285      Eu  0.27209131  0.68216083  0.49686451     2.39200
O286        O  0.23830421  0.71292733  0.55857172    -0.87000
O287        O  0.30312354  0.71748583  0.43809914    -0.90600
C288        C  0.27173532  0.65725787  0.35773879     1.04100
C289        C  0.27098283  0.65685832  0.63530858     1.03900
C290        C  0.35662224  0.66790505  0.50614163     1.03900
C291        C  0.19008927  0.65721420  0.51380623     1.01700
H292        H  0.31828712  0.70336196  0.57890821     0.31500
O293        O  0.30341852  0.71700316  0.55711551    -0.99400
H294        H  0.22274833  0.69760294  0.41613275     0.31500
O295        O  0.23656835  0.71272409  0.43776405    -1.01900
O296        O  0.26909909  0.80959219  0.65853270    -0.79100
O297        O  0.26590004  0.81079522  0.34135188    -0.78700
O298        O  0.36755895  0.75173762  0.58327231    -0.77100
O299        O  0.17155248  0.74272683  0.58735065    -0.80500
O300        O  0.16984124  0.74421695  0.41521910    -0.78300
O301        O  0.36632857  0.75524210  0.41317835    -0.77000
O302        O  0.31443622  0.84555477  0.51349707    -0.78500
O303        O  0.20759899  0.83730191  0.51022550    -0.80400
O304        O  0.35762557  0.80829188  0.51609384    -0.77200
O305        O  0.17050131  0.79388400  0.51101332    -0.79800
O306        O  0.33127811  0.74923626  0.65720354    -0.75600
O307        O  0.32940981  0.75206594  0.33998058    -0.75600
O308        O  0.20600063  0.74913696  0.34138872    -0.75200
O309        O  0.20873740  0.74705840  0.66000716    -0.78700
O310        O  0.26375850  0.84580109  0.58555174    -0.78200
O311        O  0.26197713  0.84693375  0.41587856    -0.76500
Eu312      Eu  0.26951440  0.74805527  0.62076209     2.39800
Eu313      Eu  0.26785433  0.74900433  0.37740202     2.39600
Eu314      Eu  0.33450532  0.75220228  0.49862125     2.38400
Eu315      Eu  0.20235314  0.74281713  0.50046761     2.39900
Eu316      Eu  0.26349230  0.81366796  0.49995636     2.39800
O317        O  0.23216702  0.77869265  0.44061545    -0.90900
O318        O  0.29902971  0.78270070  0.55789973    -0.89800
C319        C  0.26671255  0.83985521  0.63754690     1.04300
C320        C  0.26386431  0.84117702  0.36335950     1.03000
C321        C  0.36163635  0.75040190  0.63564630     1.02400
C322        C  0.17821567  0.74503505  0.63944046     1.04400
C323        C  0.17568435  0.74723137  0.36302444     1.03300
C324        C  0.35991379  0.75421762  0.36093625     1.02200
C325        C  0.34520892  0.83788374  0.52094478     1.02200
C326        C  0.17811759  0.82492197  0.51506469     1.04800
H327        H  0.31313181  0.79951385  0.41905020     0.32200
O328        O  0.29959641  0.78390369  0.43962426    -1.03100
H329        H  0.21932299  0.79149328  0.58282088     0.34200
O330        O  0.23394468  0.77811769  0.55966351    -1.05600
N331        N  0.02326676  0.54793003  0.63227214    -0.34700
N332        N  0.06898530  0.98717661  0.61358311    -0.55200
N333        N  0.01323678  0.94481878  0.64974569    -0.34700
N334        N  0.46366874  0.00887281  0.64467060    -0.55200
C335        C  0.05231051  0.56127244  0.61403601     0.28900
C336        C  0.49718500  0.57557830  0.63152498     0.28900
C337        C  0.03670088  0.92178977  0.63635411     0.28900
C338        C  0.47914461  0.93636638  0.62775058     0.28900
C339        C  0.09138337  0.51713918  0.64710451     0.37500
C340        C  0.08573751  0.95983963  0.63009663     0.37500
C341        C  0.45075499  0.53486049  0.64419436     0.37500
C342        C  0.44018859  0.98458239  0.64378279     0.37500
C343        C  0.04562130  0.58997816  0.58393816    -0.19900
C344        C  0.50986145  0.60533097  0.61101013    -0.19900
C345        C  0.02158344  0.89116931  0.62521953    -0.19900
C346        C  0.48537316  0.90466479  0.60577357    -0.19900
C347        C  0.12299393  0.50541480  0.66055611    -0.21000
C348        C  0.11995068  0.96607666  0.63017678    -0.21000
C349        C  0.41714598  0.52686916  0.64978994    -0.21000
C350        C  0.40842567  0.99862482  0.64397633    -0.21000
C351        C  0.08474894  0.54864792  0.62404802    -0.16400
C352        C  0.46299285  0.56683123  0.63130074    -0.16400
C353        C  0.44679453  0.95049322  0.63294697    -0.16300
C354        C  0.07128381  0.92786475  0.63214969    -0.16300
H355        H  0.06337972  0.60646547  0.56413829     0.16600
H356        H  0.49606516  0.62581614  0.59289319     0.16600
H357        H  0.03357420  0.86787332  0.61335021     0.16600
H358        H  0.46734084  0.88613514  0.59201063     0.16600
H359        H  0.14625686  0.51931487  0.66070976     0.14800
H360        H  0.13985373  0.94851780  0.63892112     0.14800
H361        H  0.39613000  0.54396242  0.65087839     0.14800
H362        H  0.38462598  0.98574375  0.64131474     0.14800
H363        H  0.02084298  0.52821803  0.65982450     0.28100
H364        H  0.01773796  0.96919109  0.66352699     0.28100
O365        O  0.51963296  0.93779495  0.83882022    -0.78200
O366        O  0.52116581  0.93933772  0.15655299    -0.79700
O367        O  0.07573019  0.90732841  0.99208872    -0.76800
O368        O  0.46603090  0.90728745  0.98947828    -0.75100
O369        O  0.42566283  0.94775532  0.98989927    -0.76900
O370        O  0.11571230  0.94799666  0.98853701    -0.77900
O371        O  0.52245066  0.90245406  0.08267268    -0.79200
O372        O  0.51941104  0.90157213  0.91237432    -0.79500
Eu373      Eu  0.52046178  0.93459895  0.99724356     2.39200
O374        O  0.48698871  0.96776638  0.05675925    -0.87000
O375        O  0.05378345  0.96808535  0.93964414    -0.90600
C376        C  0.51938745  0.90746959  0.86008455     1.04100
C377        C  0.52201818  0.90880578  0.13515012     1.03900
C378        C  0.10594533  0.91741022  0.98607767     1.03900
C379        C  0.43561329  0.91734010  0.98559263     1.01700
H380        H  0.06941150  0.95452034  0.08040675     0.31500
O381        O  0.05482952  0.96861435  0.05880156    -0.99400
H382        H  0.47295454  0.95348047  0.91599315     0.31500
O383        O  0.48715763  0.96770257  0.93851120    -1.01900
O384        O  0.52108283  0.56056498  0.16397182    -0.79100
O385        O  0.51701079  0.56026565  0.84634443    -0.78700
O386        O  0.11896536  0.00408947  0.08374614    -0.77100
O387        O  0.42236183  0.00060935  0.08400606    -0.80500
O388        O  0.42179664  0.49737566  0.91703925    -0.78300
O389        O  0.11870692  0.49916796  0.90642810    -0.77000
O390        O  0.07271635  0.59376945  0.98644745    -0.78500
O391        O  0.46441050  0.59155876  0.00323206    -0.80400
O392        O  0.11412264  0.55442724  0.98627970    -0.77200
O393        O  0.42383230  0.55142820  0.00294404    -0.79800
O394        O  0.08197533  0.00400025  0.15700811    -0.75600
O395        O  0.08198602  0.49941539  0.83293317    -0.75600
O396        O  0.45830829  0.49796307  0.84331535    -0.75200
O397        O  0.45927055  0.99938811  0.15725557    -0.78700
O398        O  0.52032904  0.59722097  0.09112180    -0.78200
O399        O  0.51691106  0.59683301  0.92073020    -0.76500
Eu400      Eu  0.52056618  0.00050132  0.11917597     2.39800
Eu401      Eu  0.51898197  0.49882261  0.88180927     2.39600
Eu402      Eu  0.08719177  0.00171658  0.99782327     2.38400
Eu403      Eu  0.45398665  0.00134826  0.99777652     2.39900
Eu404      Eu  0.51919156  0.56447391  0.00539618     2.39800
O405        O  0.48603907  0.53161307  0.94504758    -0.90900
O406        O  0.05344782  0.53280274  0.05302354    -0.89800
C407        C  0.52072844  0.59114621  0.14339683     1.04300
C408        C  0.51647234  0.59065143  0.86825836     1.03000
C409        C  0.11252961  0.00454614  0.13603563     1.02400
C410        C  0.42874372  0.99961983  0.13627095     1.04400
C411        C  0.42796147  0.49748099  0.86454241     1.03300
C412        C  0.11242397  0.49916753  0.85408644     1.02200
C413        C  0.10338225  0.58460308  0.98262680     1.02200
C414        C  0.43375992  0.58194682  0.00191941     1.04800
H415        H  0.06712745  0.54689343  0.91129291     0.32200
O416        O  0.05322735  0.53253607  0.93357393    -1.03100
H417        H  0.47240097  0.54566741  0.08688258     0.34200
O418        O  0.48671189  0.53131559  0.06473808    -1.05600
N419        N  0.27027877  0.80167089  0.85849281    -0.34700
N420        N  0.21998686  0.74935155  0.85971743    -0.55200
N421        N  0.27060517  0.69839048  0.87334631    -0.34700
N422        N  0.32119205  0.75072085  0.87195396    -0.55200
C423        C  0.24279457  0.81990833  0.87149973     0.28900
C424        C  0.29709668  0.82103019  0.87035583     0.28900
C425        C  0.24246380  0.68106003  0.88511803     0.28900
C426        C  0.29605260  0.68285470  0.89975507     0.28900
C427        C  0.19999205  0.77614906  0.85334830     0.37500
C428        C  0.20048594  0.72219573  0.85235295     0.37500
C429        C  0.34155934  0.77725226  0.86518100     0.37500
C430        C  0.34119060  0.72421314  0.88137510     0.37500
C431        C  0.25225857  0.85174770  0.88891507    -0.19900
C432        C  0.28648963  0.85256530  0.88771135    -0.19900
C433        C  0.25042082  0.65329922  0.91670980    -0.19900
C434        C  0.28415569  0.65451841  0.92612205    -0.19900
C435        C  0.16771948  0.76613045  0.84029134    -0.21000
C436        C  0.16809971  0.73178889  0.83897794    -0.21000
C437        C  0.37480460  0.76722852  0.86807539    -0.21000
C438        C  0.37454051  0.73362106  0.87880034    -0.21000
C439        C  0.20938083  0.80882982  0.86814304    -0.16400
C440        C  0.33084462  0.81075350  0.86885161    -0.16400
C441        C  0.32971526  0.69336892  0.90130375    -0.16300
C442        C  0.20959425  0.69015123  0.87020060    -0.16300
H443        H  0.23622148  0.87228224  0.90159120     0.16600
H444        H  0.30178617  0.87375342  0.89998878     0.16600
H445        H  0.23357421  0.63459184  0.93298127     0.16600
H446        H  0.29816161  0.63681370  0.95066670     0.16600
H447        H  0.14595873  0.78189989  0.83485169     0.14800
H448        H  0.14651199  0.71575021  0.83309713     0.14800
H449        H  0.39686938  0.78294948  0.86700497     0.14800
H450        H  0.39629909  0.71831234  0.88704713     0.14800
H451        H  0.27087569  0.77795662  0.84042722     0.28100
H452        H  0.27239069  0.71862260  0.84668412     0.26700
C453        C  0.01748421  0.75088960  0.24913571    -0.00500
C454        C  0.27052283  0.99958660  0.24980580    -0.00500
C455        C  0.51871341  0.74746795  0.75318392    -0.00500
C456        C  0.26935608  0.99916983  0.74555828    -0.00500
C457        C  0.23804011  0.00115949  0.21685403    -0.16600
C458        C  0.20846089  0.00288338  0.20145902     0.07500
C459        C  0.17282546  0.00451631  0.18692621     0.09400
C460        C  0.14336336  0.00509810  0.17073328    -0.17400
C461        C  0.30310910  0.99829635  0.21696673    -0.16600
C462        C  0.33273620  0.99799305  0.20149323     0.07500
C463        C  0.36842511  0.99820169  0.18699779     0.09400
C464        C  0.39790552  0.99870985  0.17089191    -0.17400
C465        C  0.52070725  0.78391568  0.21827138    -0.16600
C466        C  0.52157700  0.81329518  0.20195097     0.07500
C467        C  0.52217617  0.84877422  0.18642693     0.09400
C468        C  0.52230240  0.87804407  0.16964534    -0.17400
C469        C  0.52059389  0.62242637  0.17824828    -0.16600
C470        C  0.52026578  0.65218635  0.19420920     0.07500
C471        C  0.51984895  0.68826843  0.20804619     0.09400
C472        C  0.51953651  0.71836545  0.22208248    -0.17400
C473        C  0.18390790  0.83089057  0.88976389    -0.16600
C474        C  0.16596780  0.84969645  0.91507678     0.07500
C475        C  0.14710281  0.87243682  0.94687327     0.09400
C476        C  0.12983162  0.89278580  0.96998781    -0.17400
C477        C  0.41152257  0.89336039  0.96849935    -0.16600
C478        C  0.39329219  0.87482996  0.94356608     0.07500
C479        C  0.37343570  0.85394593  0.91043670     0.09400
C480        C  0.35528057  0.83502161  0.88615981    -0.17400
C481        C  0.35309338  0.67243349  0.93051603    -0.16600
C482        C  0.37050069  0.65342754  0.95577180     0.07500
C483        C  0.39044069  0.62907325  0.98100139     0.09400
C484        C  0.40908884  0.60730128  0.99531875    -0.17400
C485        C  0.12671502  0.60949480  0.96678712    -0.16600
C486        C  0.14415933  0.62910829  0.94318852     0.07500
C487        C  0.16396884  0.65036761  0.91124153     0.09400
C488        C  0.18317454  0.66820700  0.88746349    -0.17400
C489        C  0.39732080  0.49726431  0.82949025    -0.16600
C490        C  0.36825277  0.49754753  0.81162217     0.07500
C491        C  0.33293617  0.49830599  0.79526172     0.09400
C492        C  0.30352417  0.49900459  0.77893729    -0.17400
C493        C  0.23842041  0.49943038  0.77736970    -0.16600
C494        C  0.20857058  0.49923841  0.79119552     0.07500
C495        C  0.17276280  0.49904040  0.80406301     0.09400
C496        C  0.14322316  0.49901963  0.81956952    -0.17400
C497        C  0.51695165  0.71553022  0.78687828    -0.16600
C498        C  0.51596926  0.68618817  0.80297640     0.07500
C499        C  0.51545761  0.65075999  0.81804922     0.09400
C500        C  0.51560019  0.62146106  0.83431036    -0.17400
C501        C  0.51828503  0.78053405  0.78496628    -0.16600
C502        C  0.51831359  0.81049619  0.79879403     0.07500
C503        C  0.51861103  0.84648304  0.81117602     0.09400
C504        C  0.51896880  0.87627779  0.82594232    -0.17400
C505        C  0.48712642  0.74763610  0.71781770    -0.16600
C506        C  0.45775917  0.74827095  0.70110782     0.07500
C507        C  0.42219666  0.74915382  0.68588747     0.09400
C508        C  0.39273036  0.74980859  0.66970967    -0.17400
C509        C  0.05276525  0.74806231  0.71743633    -0.16600
C510        C  0.08248703  0.74729993  0.70305679     0.07500
C511        C  0.11820164  0.74651899  0.68991610     0.09400
C512        C  0.14767998  0.74587197  0.67432590    -0.17400
C513        C  0.27079235  0.62607253  0.66906222    -0.16600
C514        C  0.27090050  0.59666630  0.68450648     0.07500
C515        C  0.27123818  0.56108824  0.69802412     0.09400
C516        C  0.27146864  0.53154315  0.71287932    -0.17400
C517        C  0.26914741  0.96661476  0.71246941    -0.16600
C518        C  0.26868105  0.93674530  0.69825572     0.07500
C519        C  0.26813164  0.90078936  0.68605648     0.09400
C520        C  0.26763958  0.87098113  0.67159397    -0.17400
C521        C  0.38202790  0.64495384  0.52186311    -0.16600
C522        C  0.40107853  0.62712556  0.54617193     0.07500
C523        C  0.42173252  0.60751639  0.57987039     0.09400
C524        C  0.43978695  0.59002264  0.60684986    -0.17400
C525        C  0.11246954  0.56767177  0.60236418    -0.16600
C526        C  0.13200139  0.58558437  0.57901725     0.07500
C527        C  0.15164397  0.60903429  0.55053293     0.09400
C528        C  0.16821600  0.63066765  0.52969881    -0.17400
C529        C  0.09220572  0.90073769  0.61437599    -0.16600
C530        C  0.10999395  0.88177275  0.58960447     0.07500
C531        C  0.13179913  0.86299123  0.55665468     0.09400
C532        C  0.15222089  0.84675998  0.53222406    -0.17400
C533        C  0.36643462  0.86414371  0.54060585    -0.16600
C534        C  0.38177398  0.88603180  0.56384381     0.07500
C535        C  0.40009233  0.91043321  0.59322216     0.09400
C536        C  0.41916086  0.92966381  0.61524466    -0.17400
C537        C  0.04964609  0.75068500  0.28319858    -0.16600
C538        C  0.07918254  0.75028641  0.29919440     0.07500
C539        C  0.11488542  0.74959300  0.31370394     0.09400
C540        C  0.14446874  0.74874113  0.32932754    -0.17400
C541        C  0.39076888  0.75517109  0.32643420    -0.16600
C542        C  0.42038838  0.75540985  0.31107886     0.07500
C543        C  0.45624039  0.75489446  0.29789402     0.09400
C544        C  0.48608086  0.75383948  0.28376680    -0.17400
C545        C  0.26891516  0.96706961  0.28268046    -0.16600
C546        C  0.26734126  0.93757717  0.29859924     0.07500
C547        C  0.26559334  0.90196453  0.31377622     0.09400
C548        C  0.26449120  0.87248147  0.32983199    -0.17400
C549        C  0.26997526  0.53111968  0.27812303    -0.16600
C550        C  0.27079060  0.56101908  0.29245253     0.07500
C551        C  0.27166436  0.59685661  0.30634674     0.09400
C552        C  0.27196175  0.62643355  0.32249128    -0.17400
O553        O  0.76813328  0.18891865  0.34870753    -0.78200
O554        O  0.77071355  0.19051779  0.66801171    -0.79700
O555        O  0.82481349  0.15772524  0.51106200    -0.76800
O556        O  0.71768525  0.15574342  0.52341741    -0.75100
O557        O  0.67635610  0.19506092  0.52605768    -0.76900
O558        O  0.86444698  0.19880270  0.50853292    -0.77900
O559        O  0.77131015  0.15376938  0.59388248    -0.79200
O560        O  0.76888900  0.15240406  0.42182350    -0.79500
Eu561      Eu  0.77033200  0.18483037  0.50786103     2.39200
O562        O  0.73790143  0.21799523  0.56797831    -0.87000
O563        O  0.80237719  0.21800690  0.44746448    -0.90600
C564        C  0.76841445  0.15849992  0.36952835     1.04100
C565        C  0.77101809  0.16013120  0.64626771     1.03900
C566        C  0.85517936  0.16814808  0.51182112     1.03900
C567        C  0.68728456  0.16501202  0.53098309     1.01700
H568        H  0.81794446  0.20479829  0.58826424     0.31500
O569        O  0.80324888  0.21882537  0.56681189    -0.99400
H570        H  0.72090772  0.20157210  0.42833376     0.31500
O571        O  0.73541430  0.21643271  0.44919664    -1.01900
O572        O  0.77039441  0.31269880  0.66847370    -0.79100
O573        O  0.76777610  0.31174285  0.35071876    -0.78700
O574        O  0.86774685  0.25174511  0.59135476    -0.77100
O575        O  0.67207440  0.24862859  0.59696008    -0.80500
O576        O  0.67003481  0.24893653  0.42527135    -0.78300
O577        O  0.86665448  0.25329785  0.42018073    -0.77000
O578        O  0.81989889  0.34611372  0.51345806    -0.78500
O579        O  0.71324637  0.34378390  0.51978837    -0.80400
O580        O  0.86156739  0.30711742  0.51381215    -0.77200
O581        O  0.67349215  0.30286957  0.52178712    -0.79800
O582        O  0.83186801  0.25127267  0.66602618    -0.75600
O583        O  0.82911898  0.25118996  0.34785751    -0.75600
O584        O  0.70627419  0.25084171  0.35113311    -0.75200
O585        O  0.70938052  0.24972964  0.66971849    -0.78700
O586        O  0.76874113  0.34879255  0.59489299    -0.78200
O587        O  0.76620082  0.34843820  0.42484698    -0.76500
Eu588      Eu  0.77037430  0.25125555  0.63043407     2.39800
Eu589      Eu  0.76786878  0.25036042  0.38719548     2.39600
Eu590      Eu  0.83515165  0.25219385  0.50647518     2.38400
Eu591      Eu  0.70270219  0.24940145  0.51056910     2.39900
Eu592      Eu  0.76726289  0.31632713  0.50940572     2.39800
O593        O  0.73411172  0.28303317  0.44979949    -0.90900
O594        O  0.80199170  0.28453999  0.56752625    -0.89800
C595        C  0.76968499  0.34295078  0.64715759     1.04300
C596        C  0.76711456  0.34219047  0.37249239     1.03000
C597        C  0.86199005  0.25134269  0.64380172     1.02400
C598        C  0.67878993  0.24890155  0.64902864     1.04400
C599        C  0.67597018  0.25008705  0.37283586     1.03300
C600        C  0.85986694  0.25242847  0.36802580     1.02200
C601        C  0.85061839  0.33728796  0.51659940     1.02200
C602        C  0.68303010  0.33352794  0.52536203     1.04800
H603        H  0.81485412  0.29922306  0.42687920     0.32200
O604        O  0.80089361  0.28444010  0.44832416    -1.03100
H605        H  0.72189951  0.29689193  0.59306034     0.34200
O606        O  0.73593701  0.28291883  0.56985882    -1.05600
N607        N  0.52076876  0.05520817  0.65268832    -0.34700
N608        N  0.57032910  0.50232741  0.65595756    -0.55200
N609        N  0.51708267  0.45258197  0.64631536    -0.34700
N610        N  0.96816696  0.50196475  0.64009923    -0.55200
C611        C  0.55010891  0.07162928  0.64666980     0.28900
C612        C  0.99929407  0.06219918  0.58378853     0.28900
C613        C  0.54402101  0.43407633  0.63128706     0.28900
C614        C  0.98565155  0.42899631  0.64055958     0.28900
C615        C  0.58891642  0.02235259  0.64699355     0.37500
C616        C  0.58878082  0.47421120  0.65952331     0.37500
C617        C  0.95422888  0.03201691  0.63372978     0.37500
C618        C  0.94578157  0.47710497  0.64655550     0.37500
C619        C  0.54381634  0.10518704  0.63625241    -0.19900
C620        C  0.00994729  0.08548481  0.54516526    -0.19900
C621        C  0.53346544  0.40483217  0.60494987    -0.19900
C622        C  0.99325520  0.39636041  0.62445997    -0.19900
C623        C  0.62074349  0.00853970  0.64585242    -0.21000
C624        C  0.62164204  0.48208139  0.67295444    -0.21000
C625        C  0.92176309  0.02890733  0.65353906    -0.21000
C626        C  0.91357346  0.49004494  0.64899237    -0.21000
C627        C  0.58229532  0.05696741  0.64460137    -0.16400
C628        C  0.96635839  0.05957915  0.60399377    -0.16400
C629        C  0.95328175  0.44308153  0.63822281    -0.16300
C630        C  0.57789461  0.44275465  0.64003153    -0.16300
H631        H  0.56185098  0.12493312  0.62938519     0.16600
H632        H  0.99514176  0.10445940  0.52486391     0.16600
H633        H  0.54882049  0.38480636  0.58824789     0.16600
H634        H  0.97617996  0.37711684  0.60997993     0.16600
H635        H  0.64446323  0.02162787  0.64732696     0.14800
H636        H  0.64258208  0.46503107  0.67632021     0.14800
H637        H  0.90250667  0.04795476  0.65475666     0.14800
H638        H  0.89032301  0.47620286  0.65138728     0.14800
H639        H  0.51777293  0.03038242  0.66327404     0.28100
H640        H  0.51726691  0.47428961  0.67056149     0.28100
O641        O  0.02239095  0.43862706  0.83149225    -0.78200
O642        O  0.02043396  0.43870633  0.15196983    -0.79700
O643        O  0.57197425  0.40412729  0.98052475    -0.76800
O644        O  0.96893428  0.40291725  0.98201082    -0.75100
O645        O  0.92801024  0.44266547  0.98277257    -0.76900
O646        O  0.61228845  0.44443036  0.97748930    -0.77900
O647        O  0.02125291  0.40161625  0.07828126    -0.79200
O648        O  0.02343070  0.40217528  0.90469403    -0.79500
Eu649      Eu  0.02165983  0.43301797  0.99214200     2.39200
O650        O  0.98795794  0.46501103  0.05291331    -0.87000
O651        O  0.55173122  0.46619209  0.94345823    -0.90600
C652        C  0.02325227  0.40836062  0.85246468     1.04100
C653        C  0.02067801  0.40817969  0.13068487     1.03900
C654        C  0.60176302  0.41426823  0.97027392     1.03900
C655        C  0.93838683  0.41243454  0.97764069     1.01700
H656        H  0.56860467  0.44983773  0.08263645     0.31500
O657        O  0.55399491  0.46457067  0.06229973    -0.99400
H658        H  0.97486338  0.45127920  0.90970020     0.31500
O659        O  0.98861269  0.46566921  0.93270816    -1.01900
O660        O  0.01993219  0.06353008  0.15709020    -0.79100
O661        O  0.02037990  0.06071964  0.83855691    -0.78700
O662        O  0.61901125  0.49590245  0.08777920    -0.77100
O663        O  0.92196545  0.49512132  0.07954583    -0.80500
O664        O  0.92295911  0.00092337  0.91219441    -0.78300
O665        O  0.61766070  0.00164071  0.91157598    -0.77000
O666        O  0.57355896  0.09606546  0.98938141    -0.78500
O667        O  0.96677490  0.09360768  0.98322968    -0.80400
O668        O  0.61395640  0.05583404  0.98774770    -0.77200
O669        O  0.92660744  0.05301296  0.98426402    -0.79800
O670        O  0.58272758  0.49742580  0.16188436    -0.75600
O671        O  0.58091776  0.99974969  0.83806477    -0.75600
O672        O  0.95966558  0.00139102  0.83869188    -0.75200
O673        O  0.95894673  0.49671614  0.15263939    -0.78700
O674        O  0.01979726  0.09958099  0.08331609    -0.78200
O675        O  0.02031878  0.09803525  0.91190310    -0.76500
Eu676      Eu  0.02042730  0.49957701  0.11452663     2.39800
Eu677      Eu  0.02082331  0.99971690  0.87640177     2.39600
Eu678      Eu  0.58613650  0.49823898  0.00232897     2.38400
Eu679      Eu  0.95449470  0.49716727  0.99354417     2.39900
Eu680      Eu  0.02061837  0.06677845  0.99754237     2.39800
O681        O  0.98820949  0.03213619  0.93943976    -0.90900
O682        O  0.55390191  0.03446517  0.05883239    -0.89800
C683        C  0.01977633  0.09378987  0.13573266     1.04300
C684        C  0.02023952  0.09132083  0.85965723     1.03000
C685        C  0.61310489  0.49631570  0.14033698     1.02400
C686        C  0.92832077  0.49527458  0.13198703     1.04400
C687        C  0.92927002  0.00178182  0.85998296     1.03300
C688        C  0.61135147  0.00076251  0.85931600     1.02200
C689        C  0.60391989  0.08624270  0.98374402     1.02200
C690        C  0.93652920  0.08330640  0.97803744     1.04800
H691        H  0.56642889  0.04716876  0.91554648     0.32200
O692        O  0.55243619  0.03310670  0.93815394    -1.03100
H693        H  0.97209766  0.04892902  0.07802588     0.34200
O694        O  0.98688540  0.03432532  0.05723845    -1.05600
N695        N  0.76601503  0.30016173  0.84663528    -0.34700
N696        N  0.71697781  0.24655230  0.83975534    -0.55200
N697        N  0.76951553  0.19589728  0.84598242    -0.34700
N698        N  0.81856431  0.24978940  0.85511189    -0.55200
C699        C  0.73751934  0.31734726  0.85745983     0.28900
C700        C  0.79169243  0.31919418  0.86566935     0.28900
C701        C  0.74234105  0.17694576  0.85739912     0.28900
C702        C  0.79660949  0.17839919  0.86274020     0.28900
C703        C  0.69609698  0.27278359  0.83353923     0.37500
C704        C  0.69794837  0.21874234  0.83579664     0.37500
C705        C  0.83787647  0.27749943  0.85646727     0.37500
C706        C  0.83974260  0.22349067  0.85631073     0.37500
C707        C  0.74539973  0.34815206  0.88139819    -0.19900
C708        C  0.77951150  0.34931245  0.88650923    -0.19900
C709        C  0.75248624  0.14626489  0.87801380    -0.19900
C710        C  0.78666992  0.14713831  0.88121995    -0.19900
C711        C  0.66379912  0.26154444  0.82344507    -0.21000
C712        C  0.66495758  0.22725339  0.82506678    -0.21000
C713        C  0.87148707  0.26873971  0.85749444    -0.21000
C714        C  0.87265350  0.23453301  0.85755171    -0.21000
C715        C  0.70451228  0.30605835  0.84745501    -0.16400
C716        C  0.82580946  0.31015832  0.86579863    -0.16400
C717        C  0.82994163  0.19006565  0.86439303    -0.16300
C718        C  0.70856542  0.18680512  0.85228573    -0.16300
H719        H  0.72835950  0.36765159  0.89491427     0.16600
H720        H  0.79364827  0.36977723  0.90474883     0.16600
H721        H  0.73686070  0.12560889  0.89085626     0.16600
H722        H  0.80228087  0.12734913  0.89734061     0.16600
H723        H  0.64140657  0.27652037  0.81892538     0.14800
H724        H  0.64367608  0.21055672  0.82188972     0.14800
H725        H  0.89290574  0.28524682  0.86080631     0.14800
H726        H  0.89511941  0.21953567  0.86077186     0.14800
H727        H  0.76798578  0.27768215  0.82475331     0.28100
H728        H  0.76967433  0.21901449  0.82673698     0.26700
C729        C  0.51897253  0.25026753  0.25503772    -0.00500
C730        C  0.77134564  0.49838153  0.25641724    -0.00500
C731        C  0.02077951  0.24852551  0.74908652    -0.00500
C732        C  0.76911537  0.50267281  0.75382482    -0.00500
C733        C  0.73869780  0.49700622  0.22353041    -0.16600
C734        C  0.70911426  0.49617771  0.20760122     0.07500
C735        C  0.67353149  0.49568378  0.19184895     0.09400
C736        C  0.64417426  0.49573114  0.17480369    -0.17400
C737        C  0.80407933  0.49641554  0.22325365    -0.16600
C738        C  0.83334381  0.49500139  0.20543101     0.07500
C739        C  0.86854169  0.49410062  0.18667056     0.09400
C740        C  0.89753044  0.49420110  0.16756204    -0.17400
C741        C  0.01805336  0.28435333  0.21650558    -0.16600
C742        C  0.01867553  0.31348276  0.19939387     0.07500
C743        C  0.01948057  0.34864667  0.18284321     0.09400
C744        C  0.02010744  0.37768754  0.16543285    -0.17400
C745        C  0.01946940  0.12488669  0.17025528    -0.16600
C746        C  0.01908004  0.15433214  0.18695023     0.07500
C747        C  0.01843963  0.18994206  0.20223844     0.09400
C748        C  0.01788252  0.21956827  0.21802959    -0.17400
C749        C  0.67771865  0.32860876  0.86303208    -0.16600
C750        C  0.65883005  0.34805633  0.88515134     0.07500
C751        C  0.63995904  0.37097844  0.91709177     0.09400
C752        C  0.62386991  0.39062111  0.94438287    -0.17400
C753        C  0.91433203  0.38831926  0.96016311    -0.16600
C754        C  0.89385604  0.37106555  0.93737649     0.07500
C755        C  0.86997230  0.35223312  0.90807519     0.09400
C756        C  0.84964701  0.33457414  0.88570960    -0.17400
C757        C  0.85498705  0.16724172  0.88453333    -0.16600
C758        C  0.87382264  0.14840538  0.90717441     0.07500
C759        C  0.89439279  0.12635681  0.93649603     0.09400
C760        C  0.91259894  0.10703346  0.95937194    -0.17400
C761        C  0.62762789  0.11036135  0.96528259    -0.16600
C762        C  0.64557423  0.12866221  0.93951953     0.07500
C763        C  0.66547810  0.14829282  0.90442473     0.09400
C764        C  0.68370473  0.16511724  0.87644565    -0.17400
C765        C  0.89845021  0.00327806  0.82592841    -0.16600
C766        C  0.86875304  0.00411619  0.81159856     0.07500
C767        C  0.83284685  0.00432455  0.80001685     0.09400
C768        C  0.80298909  0.00377511  0.78644334    -0.17400
C769        C  0.73784201  0.00247681  0.78527844    -0.16600
C770        C  0.70792776  0.00230448  0.79882309     0.07500
C771        C  0.67198699  0.00175002  0.81074404     0.09400
C772        C  0.64226072  0.00115406  0.82520354    -0.17400
C773        C  0.02043601  0.21667181  0.78271974    -0.16600
C774        C  0.02030058  0.18707797  0.79733640     0.07500
C775        C  0.02019076  0.15138608  0.81019646     0.09400
C776        C  0.02014690  0.12188960  0.82528850    -0.17400
C777        C  0.02191656  0.28172662  0.77999805    -0.16600
C778        C  0.02276343  0.31181855  0.79241143     0.07500
C779        C  0.02344242  0.34781329  0.80340928     0.09400
C780        C  0.02362787  0.37754998  0.81791113    -0.17400
C781        C  0.98820813  0.24866592  0.71712247    -0.16600
C782        C  0.95843666  0.24923563  0.70342495     0.07500
C783        C  0.92266714  0.25003820  0.69154779     0.09400
C784        C  0.89302635  0.25069934  0.67718128    -0.17400
C785        C  0.55192394  0.24871807  0.71916100    -0.16600
C786        C  0.58204324  0.24852442  0.70702362     0.07500
C787        C  0.61815557  0.24838975  0.69685955     0.09400
C788        C  0.64803222  0.24849475  0.68334647    -0.17400
C789        C  0.77090468  0.12940376  0.68004144    -0.16600
C790        C  0.77069821  0.09979830  0.69435239     0.07500
C791        C  0.77049690  0.06399994  0.70610357     0.09400
C792        C  0.77047383  0.03429687  0.72004695    -0.17400
C793        C  0.76844909  0.46975134  0.72187517    -0.16600
C794        C  0.76862582  0.43981622  0.70811651     0.07500
C795        C  0.76920422  0.40387319  0.69589641     0.09400
C796        C  0.76965929  0.37410210  0.68122159    -0.17400
C797        C  0.88046067  0.14402782  0.52187271    -0.16600
C798        C  0.90070686  0.12468532  0.53913008     0.07500
C799        C  0.92325485  0.10292129  0.56446920     0.09400
C800        C  0.94255913  0.08387657  0.58524028    -0.17400
C801        C  0.60936404  0.07843392  0.62735385    -0.16600
C802        C  0.62829666  0.09729942  0.60480658     0.07500
C803        C  0.64765935  0.12015274  0.57465350     0.09400
C804        C  0.66457473  0.14032678  0.55089678    -0.17400
C805        C  0.60283933  0.41996785  0.61847593    -0.16600
C806        C  0.62113188  0.40097789  0.59415394     0.07500
C807        C  0.64095796  0.37816143  0.56400195     0.09400
C808        C  0.65887369  0.35791302  0.54187903    -0.17400
C809        C  0.87384057  0.36293164  0.52992376    -0.16600
C810        C  0.89075205  0.38360688  0.55268817     0.07500
C811        C  0.90936763  0.40538907  0.58628989     0.09400
C812        C  0.92742951  0.42267683  0.61398413    -0.17400
C813        C  0.55083982  0.25093028  0.28961020    -0.16600
C814        C  0.58019435  0.25112807  0.30629679     0.07500
C815        C  0.61564949  0.25101049  0.32197146     0.09400
C816        C  0.64498649  0.25067398  0.33864883    -0.17400
C817        C  0.89047818  0.25280699  0.33254415    -0.16600
C818        C  0.91978742  0.25309247  0.31532068     0.07500
C819        C  0.95532912  0.25320466  0.29935645     0.09400
C820        C  0.98485402  0.25303821  0.28311920    -0.17400
C821        C  0.77076723  0.46727320  0.29225529    -0.16600
C822        C  0.76986491  0.43807972  0.30905686     0.07500
C823        C  0.76873518  0.40257661  0.32354350     0.09400
C824        C  0.76786666  0.37309568  0.33883929    -0.17400
C825        C  0.76919878  0.03294101  0.28549606    -0.16600
C826        C  0.76877780  0.06251113  0.30181007     0.07500
C827        C  0.76837749  0.09810746  0.31759739     0.09400
C828        C  0.76823690  0.12753118  0.33457200    -0.17400
O829        O  0.76804091  0.68949016  0.34557264    -0.78200
O830        O  0.76971302  0.69005909  0.66358921    -0.79700
O831        O  0.82633952  0.65898100  0.50812131    -0.76800
O832        O  0.71915747  0.65622920  0.52211629    -0.75100
O833        O  0.67694462  0.69464432  0.52198318    -0.76900
O834        O  0.86545808  0.70057426  0.50759604    -0.77900
O835        O  0.77194897  0.65345012  0.58937059    -0.79200
O836        O  0.76936499  0.65285801  0.41845071    -0.79500
Eu837      Eu  0.77133464  0.68537399  0.50421877     2.39200
O838        O  0.73832941  0.71806614  0.56414528    -0.87000
O839        O  0.80289112  0.71930432  0.44449448    -0.90600
C840        C  0.76861427  0.65897668  0.36621068     1.04100
C841        C  0.77055194  0.65970477  0.64175866     1.03900
C842        C  0.85658531  0.66975285  0.51059174     1.03900
C843        C  0.68857534  0.66502947  0.52886200     1.01700
H844        H  0.81829885  0.70551328  0.58517772     0.31500
O845        O  0.80361819  0.71952869  0.56368949    -0.99400
H846        H  0.72141587  0.70172638  0.42502053     0.31500
O847        O  0.73576574  0.71668512  0.44598313    -1.01900
O848        O  0.77255240  0.81210848  0.66711502    -0.79100
O849        O  0.76707600  0.81272858  0.34820557    -0.78700
O850        O  0.86767785  0.75200048  0.58899764    -0.77100
O851        O  0.67172113  0.74782430  0.59436236    -0.80500
O852        O  0.67022604  0.74837778  0.42185860    -0.78300
O853        O  0.86614341  0.75334739  0.41655143    -0.77000
O854        O  0.81790822  0.84751846  0.52134350    -0.78500
O855        O  0.71140717  0.84415420  0.51538512    -0.80400
O856        O  0.86014147  0.80909707  0.52117937    -0.77200
O857        O  0.67260194  0.80230936  0.51391006    -0.79800
O858        O  0.83157472  0.75081808  0.66337392    -0.75600
O859        O  0.82860993  0.75007244  0.34429964    -0.75600
O860        O  0.70645416  0.75139611  0.34784730    -0.75200
O861        O  0.70911100  0.74914043  0.66696722    -0.78700
O862        O  0.76912644  0.84868869  0.59437511    -0.78200
O863        O  0.76623869  0.84954559  0.42228231    -0.76500
Eu864      Eu  0.77004821  0.75116290  0.62749558     2.39800
Eu865      Eu  0.76784673  0.75115516  0.38441280     2.39600
Eu866      Eu  0.83526742  0.75366929  0.50390268     2.38400
Eu867      Eu  0.70261070  0.74924623  0.50747837     2.39900
Eu868      Eu  0.76613200  0.81728265  0.50738985     2.39800
O869        O  0.73391280  0.78329529  0.44744328    -0.90900
O870        O  0.80059792  0.78460181  0.56404838    -0.89800
C871        C  0.77175750  0.84250730  0.64643328     1.04300
C872        C  0.76663321  0.84325132  0.36980745     1.03000
C873        C  0.86178553  0.75111942  0.64140174     1.02400
C874        C  0.67846738  0.74797900  0.64653984     1.04400
C875        C  0.67617741  0.75013712  0.36949498     1.03300
C876        C  0.85932347  0.75118265  0.36442720     1.02200
C877        C  0.84847904  0.83888799  0.52796471     1.02200
C878        C  0.68123289  0.83318317  0.51777690     1.04800
H879        H  0.81459138  0.80100000  0.42459581     0.32200
O880        O  0.80066367  0.78603341  0.44576271    -1.03100
H881        H  0.72056614  0.79714613  0.59075004     0.34200
O882        O  0.73490206  0.78332991  0.56775228    -1.05600
N883        N  0.52247841  0.55659658  0.65120765    -0.34700
N884        N  0.56559613  0.99801625  0.64202557    -0.55200
N885        N  0.50856677  0.95170885  0.63939977    -0.34700
N886        N  0.97004246  0.00229328  0.63565829    -0.55200
C887        C  0.55124044  0.57324990  0.64083973     0.28900
C888        C  0.99822101  0.56709984  0.61203272     0.28900
C889        C  0.53324395  0.93095342  0.62169472     0.28900
C890        C  0.98316290  0.92963481  0.64379621     0.28900
C891        C  0.59145662  0.52814622  0.66490304     0.37500
C892        C  0.58245111  0.96891899  0.63640865     0.37500
C893        C  0.95034540  0.53055761  0.63667285     0.37500
C894        C  0.94748866  0.98000017  0.65429798     0.37500
C895        C  0.54394656  0.60389567  0.61694588    -0.19900
C896        C  0.01155176  0.59370889  0.58287174    -0.19900
C897        C  0.51938615  0.90135639  0.60169822    -0.19900
C898        C  0.98777171  0.89613233  0.62977921    -0.19900
C899        C  0.62332972  0.51635110  0.67650595    -0.21000
C900        C  0.61666226  0.97471882  0.63915612    -0.21000
C901        C  0.91647382  0.52399162  0.64287495    -0.21000
C902        C  0.91739606  0.99575411  0.66607966    -0.21000
C903        C  0.58392240  0.56140173  0.65114139    -0.16400
C904        C  0.96365397  0.56105556  0.61816923    -0.16400
C905        C  0.95167234  0.94530152  0.64880003    -0.16300
C906        C  0.56791106  0.93795687  0.62149331    -0.16300
H907        H  0.56135508  0.62306885  0.60407487     0.16600
H908        H  0.99815086  0.61344169  0.56190443     0.16600
H909        H  0.53237526  0.87980899  0.58462769     0.16600
H910        H  0.96877750  0.87729827  0.62228011     0.16600
H911        H  0.64585449  0.53095815  0.68298847     0.14800
H912        H  0.63666046  0.95662486  0.63456014     0.14800
H913        H  0.89590607  0.54149946  0.63967684     0.14800
H914        H  0.89421195  0.98415454  0.67899945     0.14800
H915        H  0.52010010  0.53436248  0.67290100     0.28100
H916        H  0.51162096  0.97438571  0.66008230     0.28100
O917        O  0.02143788  0.93806751  0.83977049    -0.78200
O918        O  0.01949353  0.94089206  0.15890764    -0.79700
O919        O  0.57489902  0.90893343  0.97788795    -0.76800
O920        O  0.96936891  0.90467984  0.99008126    -0.75100
O921        O  0.92834910  0.94429076  0.98689382    -0.76900
O922        O  0.61522103  0.94932893  0.98113885    -0.77900
O923        O  0.01984645  0.90352311  0.08572708    -0.79200
O924        O  0.02298758  0.90221096  0.91378027    -0.79500
Eu925      Eu  0.02175189  0.93482643  0.99946856     2.39200
O926        O  0.98762493  0.96748986  0.05856544    -0.87000
O927        O  0.55265935  0.96829438  0.93873975    -0.90600
C928        C  0.02234458  0.90791017  0.86138241     1.04100
C929        C  0.01923601  0.91014376  0.13807821     1.03900
C930        C  0.60513129  0.91932809  0.97235219     1.03900
C931        C  0.93890377  0.91392519  0.98400164     1.01700
H932        H  0.56895956  0.95289607  0.07757062     0.31500
O933        O  0.55421500  0.96737162  0.05699826    -0.99400
H934        H  0.97477227  0.95228098  0.91577556     0.31500
O935        O  0.98857290  0.96674173  0.93857433    -1.01900
O936        O  0.02031600  0.56161429  0.15236986    -0.79100
O937        O  0.01927511  0.56055702  0.83485791    -0.78700
O938        O  0.61836628  0.00066870  0.08341877    -0.77100
O939        O  0.92176083  0.99939272  0.08273666    -0.80500
O940        O  0.92317190  0.49699871  0.90729850    -0.78300
O941        O  0.61776316  0.50111035  0.91702797    -0.77000
O942        O  0.57291414  0.59226647  0.99369581    -0.78500
O943        O  0.96481580  0.59053133  0.98041442    -0.80400
O944        O  0.61377714  0.55233877  0.99168558    -0.77200
O945        O  0.92496309  0.54966330  0.98172201    -0.79800
O946        O  0.58171230  0.00005430  0.15697921    -0.75600
O947        O  0.58050689  0.50102271  0.84413942    -0.75600
O948        O  0.95961226  0.49932904  0.83350521    -0.75200
O949        O  0.95837855  0.00148358  0.15636148    -0.78700
O950        O  0.01922435  0.59800227  0.07913844    -0.78200
O951        O  0.01862350  0.59706155  0.90927952    -0.76500
Eu952      Eu  0.02035141  0.00194129  0.11971017     2.39800
Eu953      Eu  0.02084093  0.49926501  0.87107402     2.39600
Eu954      Eu  0.58626082  0.00159515  0.99757597     2.38400
Eu955      Eu  0.95466357  0.99947286  0.99776567     2.39900
Eu956      Eu  0.01942434  0.56483379  0.99394209     2.39800
O957        O  0.98744802  0.53048166  0.93498912    -0.90900
O958        O  0.55391108  0.53206498  0.06349302    -0.89800
C959        C  0.01984329  0.59209241  0.13146802     1.04300
C960        C  0.01862878  0.59091326  0.85684692     1.03000
C961        C  0.61213794  0.00016729  0.13578178     1.02400
C962        C  0.92785913  0.00036488  0.13514930     1.04400
C963        C  0.92928123  0.49840528  0.85503603     1.03300
C964        C  0.61110945  0.50174384  0.86491884     1.02200
C965        C  0.60334162  0.58262662  0.98772286     1.02200
C966        C  0.93460526  0.58000500  0.97570933     1.04800
H967        H  0.56511156  0.54530267  0.92228341     0.32200
O968        O  0.55153099  0.53100730  0.94513665    -1.03100
H969        H  0.97130274  0.54636912  0.07493506     0.34200
O970        O  0.98615825  0.53208577  0.05366555    -1.05600
N971        N  0.77140427  0.80284720  0.85117250    -0.34700
N972        N  0.71867453  0.75365726  0.86117392    -0.55200
N973        N  0.76745774  0.70030101  0.86936646    -0.34700
N974        N  0.81989056  0.74881787  0.85864125    -0.55200
C975        C  0.74475217  0.82268856  0.86194685     0.28900
C976        C  0.79888291  0.81981611  0.86844321     0.28900
C977        C  0.74027236  0.68534035  0.89139873     0.28900
C978        C  0.79432214  0.68200910  0.88448578     0.28900
C979        C  0.69970873  0.78047850  0.84899851     0.37500
C980        C  0.69761060  0.72739605  0.86462015     0.37500
C981        C  0.84081919  0.77492519  0.85277689     0.37500
C982        C  0.83879040  0.72101202  0.85436830     0.37500
C983        C  0.75554558  0.85319296  0.88357334    -0.19900
C984        C  0.78967082  0.85127004  0.88809030    -0.19900
C985        C  0.74992138  0.65678281  0.91961337    -0.19900
C986        C  0.78402392  0.65459769  0.91502422    -0.19900
C987        C  0.66642193  0.77104448  0.84330657    -0.21000
C988        C  0.66507805  0.73734870  0.85358107    -0.21000
C989        C  0.87315955  0.76375903  0.84306271    -0.21000
C990        C  0.87183245  0.72943378  0.84354959    -0.21000
C991        C  0.71090143  0.81369751  0.85472461    -0.16400
C992        C  0.83208113  0.80793359  0.86662617    -0.16400
C993        C  0.82786720  0.68937026  0.87152842    -0.16300
C994        C  0.70689110  0.69586986  0.88477788    -0.16300
H995        H  0.74038465  0.87435678  0.89637907     0.16600
H996        H  0.80579918  0.87078995  0.90446920     0.16600
H997        H  0.73408843  0.63925819  0.94133870     0.16600
H998        H  0.79945937  0.63520956  0.93283361     0.16600
H999        H  0.64510676  0.78714061  0.83603493     0.14800
H1000       H  0.64260960  0.72223852  0.85519638     0.14800
H1001       H  0.89556389  0.77879666  0.83911737     0.14800
H1002       H  0.89309655  0.71272858  0.84048766     0.14800
H1003       H  0.77085419  0.77979850  0.83065250     0.28100
H1004       H  0.76747394  0.72007740  0.84161316     0.26700
C1005       C  0.51926527  0.75213225  0.25275454    -0.00500
C1006       C  0.76954363  0.00016326  0.25249661    -0.00500
C1007       C  0.02019950  0.74905971  0.74978254    -0.00500
C1008       C  0.77069701  0.00237790  0.75348837    -0.00500
C1009       C  0.73720528  0.99992829  0.21901047    -0.16600
C1010       C  0.70773200  0.99974654  0.20282395     0.07500
C1011       C  0.67223678  0.99962453  0.18729026     0.09400
C1012       C  0.64292735  0.99972271  0.17044649    -0.17400
C1013       C  0.80235677  0.99987335  0.21977185    -0.16600
C1014       C  0.83184347  0.99989574  0.20315659     0.07500
C1015       C  0.86738618  0.00007492  0.18679790     0.09400
C1016       C  0.89677143  0.00027050  0.16971741    -0.17400
C1017       C  0.01764038  0.78416513  0.21804214    -0.16600
C1018       C  0.01774533  0.81400639  0.20350896     0.07500
C1019       C  0.01796442  0.84983386  0.18910555     0.09400
C1020       C  0.01837171  0.87931335  0.17283041    -0.17400
C1021       C  0.01992678  0.62338546  0.16616593    -0.16600
C1022       C  0.01972080  0.65298588  0.18283127     0.07500
C1023       C  0.01913793  0.68877902  0.19845512     0.09400
C1024       C  0.01840837  0.71843642  0.21483126    -0.17400
C1025       C  0.68622466  0.83866562  0.86814454    -0.16600
C1026       C  0.66747574  0.85809107  0.89009878     0.07500
C1027       C  0.64702117  0.87890159  0.92257438     0.09400
C1028       C  0.62878349  0.89653273  0.94940648    -0.17400
C1029       C  0.91563108  0.88879426  0.96730005    -0.16600
C1030       C  0.89771842  0.86879154  0.94463908     0.07500
C1031       C  0.87710170  0.84707856  0.91386288     0.09400
C1032       C  0.85791673  0.82928888  0.88904431    -0.17400
C1033       C  0.85273197  0.66529466  0.88731433    -0.16600
C1034       C  0.87147712  0.64557642  0.90783668     0.07500
C1035       C  0.89196700  0.62297240  0.93588874     0.09400
C1036       C  0.91034914  0.60355037  0.95797679    -0.17400
C1037       C  0.62665897  0.60733557  0.97055730    -0.16600
C1038       C  0.64366768  0.62858333  0.94997684     0.07500
C1039       C  0.66277664  0.65337826  0.92422717     0.09400
C1040       C  0.68111800  0.67367381  0.90408776    -0.17400
C1041       C  0.89824306  0.49943030  0.82133741    -0.16600
C1042       C  0.86840863  0.50053498  0.80765032     0.07500
C1043       C  0.83234485  0.50185798  0.79709287     0.09400
C1044       C  0.80225628  0.50265988  0.78475125    -0.17400
C1045       C  0.73699323  0.50345429  0.78761349    -0.16600
C1046       C  0.70729230  0.50388171  0.80242193     0.07500
C1047       C  0.67146726  0.50386090  0.81538414     0.09400
C1048       C  0.64183249  0.50323120  0.83039938    -0.17400
C1049       C  0.01928755  0.71681411  0.78235580    -0.16600
C1050       C  0.01856645  0.68714216  0.79645671     0.07500
C1051       C  0.01808322  0.65139533  0.80877671     0.09400
C1052       C  0.01811035  0.62180524  0.82331909    -0.17400
C1053       C  0.02079832  0.78176249  0.78245255    -0.16600
C1054       C  0.02136814  0.81149363  0.79743497     0.07500
C1055       C  0.02195814  0.84721775  0.81140529     0.09400
C1056       C  0.02227747  0.87677914  0.82723736    -0.17400
C1057       C  0.98786867  0.74944178  0.71686809    -0.16600
C1058       C  0.95815993  0.74966574  0.70246808     0.07500
C1059       C  0.92240006  0.74995770  0.68984175     0.09400
C1060       C  0.89278901  0.75035464  0.67504087    -0.17400
C1061       C  0.55233669  0.74641882  0.72331593    -0.16600
C1062       C  0.58237793  0.74616436  0.71017270     0.07500
C1063       C  0.61830405  0.74640783  0.69736145     0.09400
C1064       C  0.64785866  0.74698880  0.68166335    -0.17400
C1065       C  0.76967922  0.62900235  0.67566885    -0.16600
C1066       C  0.76911545  0.59965877  0.69138185     0.07500
C1067       C  0.76882160  0.56415097  0.70532604     0.09400
C1068       C  0.76886076  0.53467687  0.72053427    -0.17400
C1069       C  0.77185127  0.96914945  0.72220305    -0.16600
C1070       C  0.77298632  0.93913071  0.70881236     0.07500
C1071       C  0.77382614  0.90315207  0.69637043     0.09400
C1072       C  0.77358083  0.87344616  0.68110004    -0.17400
C1073       C  0.88193292  0.64588889  0.52325929    -0.16600
C1074       C  0.90140852  0.62657213  0.54335403     0.07500
C1075       C  0.92260384  0.60457788  0.57194112     0.09400
C1076       C  0.94074069  0.58535517  0.59550119    -0.17400
C1077       C  0.61124547  0.58263460  0.63466438    -0.16600
C1078       C  0.63074282  0.60038187  0.61111091     0.07500
C1079       C  0.65016949  0.62148396  0.57793307     0.09400
C1080       C  0.66659017  0.64058999  0.55116357    -0.17400
C1081       C  0.59005159  0.91303620  0.59777452    -0.16600
C1082       C  0.60962937  0.89473731  0.57478889     0.07500
C1083       C  0.63384195  0.87468062  0.54835458     0.09400
C1084       C  0.65537565  0.85671379  0.53010431    -0.17400
C1085       C  0.87018396  0.86405114  0.55001662    -0.16600
C1086       C  0.88531515  0.88471007  0.57656405     0.07500
C1087       C  0.90334674  0.90753621  0.60976431     0.09400
C1088       C  0.92276970  0.92566936  0.63345906    -0.17400
C1089       C  0.55098837  0.75263931  0.28756067    -0.16600
C1090       C  0.58035036  0.75249063  0.30406537     0.07500
C1091       C  0.61584406  0.75183736  0.31914608     0.09400
C1092       C  0.64522710  0.75106973  0.33540085    -0.17400
C1093       C  0.88984687  0.74988850  0.32885690    -0.16600
C1094       C  0.91915677  0.74939777  0.31172472     0.07500
C1095       C  0.95478936  0.74951046  0.29643306     0.09400
C1096       C  0.98446861  0.75002387  0.28103573    -0.17400
C1097       C  0.76897199  0.96794407  0.28585108    -0.16600
C1098       C  0.76817089  0.93866206  0.30252211     0.07500
C1099       C  0.76733065  0.90331484  0.31863252     0.09400
C1100       C  0.76686570  0.87408485  0.33553197    -0.17400
C1101       C  0.77122158  0.53225867  0.28664899    -0.16600
C1102       C  0.77045010  0.56223379  0.30111356     0.07500
C1103       C  0.76937178  0.59817224  0.31528880     0.09400
C1104       C  0.76869861  0.62784044  0.33136170    -0.17400
loop_ 
_geom_bond_atom_site_label_1 
_geom_bond_atom_site_label_2 
_geom_bond_distance 
_geom_bond_site_symmetry_2 
_ccdc_geom_bond_type 
O1           C12   1.320       .  A
O1          Eu37   2.614       .  S
O2           C13   1.317       .  A
O2          Eu36   2.603       .  S
O3           C14   1.283       .  A
O3           Eu9   2.434       .  S
O4           C15   1.280       .  A
O4           Eu9   2.418       .  S
O5           C15   1.287       .  A
O5          Eu39   2.457       .  S
O6           C14   1.283       .  A
O6          Eu38   2.437       .  S
O7           C13   1.283       .  A
O7           Eu9   2.431       .  S
O8           C12   1.282       .  A
O8           Eu9   2.421       .  S
Eu9          O19   2.360       .  S
Eu9          O11   2.352       .  S
Eu9          O10   2.350       .  S
Eu9          O17   2.351       .  S
O10         Eu39   2.354       .  S
O10         Eu36   2.387       .  S
O11         Eu37   2.391       .  S
O11         Eu38   2.356       .  S
C12         C276   1.486       .  S
C13         C237   1.485       .  S
C14         C245   1.421       .  S
C15         C252   1.424       .  S
H16          O17   0.965       .  S
O17         Eu38   2.357       .  S
O17         Eu36   2.379       .  S
H18          O19   0.966       .  S
O19         Eu37   2.393       .  S
O19         Eu39   2.359       .  S
O20          C43   1.317       .  A
O20         Eu36   2.599       .  S
O21          C44   1.317       .  A
O21         Eu37   2.601       .  S
O22          C45   1.283       .  A
O22         Eu38   2.426       .  S
O23          C46   1.282       .  A
O23         Eu39   2.422       .  S
O24          C47   1.283       .  A
O24         Eu39   2.427       .  S
O25          C48   1.282       .  A
O25         Eu38   2.422       .  S
O26          C49   1.283       .  A
O26         Eu40   2.439       .  S
O27          C50   1.284       .  A
O27         Eu40   2.444       .  S
O28          C49   1.285       .  A
O28         Eu38   2.448       .  S
O29          C50   1.285       .  A
O29         Eu39   2.450       .  S
O30          C45   1.319       .  A
O30         Eu36   2.611       .  S
O31          C48   1.319       .  A
O31         Eu37   2.613       .  S
O32          C47   1.320       .  A
O32         Eu37   2.617       .  S
O33          C46   1.315       .  A
O33         Eu36   2.591       .  S
O34          C43   1.281       .  A
O34         Eu40   2.413       .  S
O35          C44   1.284       .  A
O35         Eu40   2.433       .  S
Eu36         O54   2.388       .  S
Eu36         O42   2.377       .  S
Eu37         O41   2.397       .  S
Eu37         O52   2.400       .  S
Eu38         O52   2.361       .  S
Eu38         O42   2.339       .  S
Eu39         O41   2.360       .  S
Eu39         O54   2.357       .  S
Eu40         O41   2.353       .  S
Eu40         O52   2.360       .  S
Eu40         O54   2.356       .  S
Eu40         O42   2.347       .  S
C43         C244   1.475       .  S
C44         C272   1.484       .  S
C45         C232   1.486       .  S
C46         C236   1.473       .  S
C47         C264   1.487       .  S
C48         C265   1.485       .  S
C49         C257   1.431       .  S
C50         C256   1.428       .  S
H51          O52   0.966       .  S
H53          O54   0.965       .  S
N55          H87   1.040       .  S
N55          C59   1.350       .  A
N55         C612   1.348   1_455  A
N56          C64   1.348       .  A
N56         C339   1.348       .  A
N57          H88   1.039       .  S
N57          C61   1.355       .  A
N57         C614   1.351   1_455  A
N58          C66   1.349       .  A
N58         C341   1.348       .  A
C59          C67   1.387       .  A
C59          C75   1.405       .  A
C60         N607   1.352       .  A
C60          C76   1.410       .  A
C60          C68   1.387       .  A
C61          C69   1.387       .  A
C61          C78   1.411       .  A
C62         N609   1.354       .  A
C62          C77   1.411       .  A
C62          C70   1.387       .  A
C63         N332   1.349   1_545  A
C63          C75   1.403       .  A
C63          C71   1.384   1_545  A
C64          C78   1.404       .  A
C64          C72   1.387       .  A
C65         N334   1.348       .  A
C65          C73   1.387       .  A
C65          C76   1.407       .  A
C66          C74   1.386       .  A
C66          C77   1.406       .  A
C67         C620   1.371       .  A
C67          H79   1.082       .  S
C68         C619   1.369       .  A
C68          H80   1.083       .  S
C69         C622   1.370   1_455  A
C69          H81   1.082       .  S
C70         C621   1.370       .  A
C70          H82   1.082       .  S
C71         C348   1.372       .  A
C71          H83   1.082   1_565  S
C72         C347   1.372       .  A
C72          H84   1.083       .  S
C73         C350   1.369   1_545  A
C73          H85   1.083       .  S
C74         C349   1.372       .  A
C74          H86   1.083       .  S
C75         C249   1.440       .  S
C76         C248   1.441       .  S
C77         C260   1.448       .  S
C78         C253   1.445       .  S
O89         C100   1.318       .  A
O89        Eu401   2.609       .  S
O90         C101   1.318       .  A
O90        Eu124   2.607       .  S
O91         C102   1.280       .  A
O91        Eu649   2.421       .  S
O92         C103   1.282       .  A
O92         Eu97   2.433   1_556  S
O93         C103   1.282   1_554  A
O93        Eu127   2.429       .  S
O94         C102   1.283       .  A
O94        Eu126   2.439       .  S
O95         C101   1.284       .  A
O95         Eu97   2.431       .  S
O96         C100   1.283       .  A
O96         Eu97   2.428   1_556  S
Eu97        O643   2.431   1_554  S
Eu97        O107   2.355   1_554  S
Eu97         O98   2.351       .  S
Eu97        O651   2.343   1_554  S
Eu97        O657   2.367       .  S
O98        Eu127   2.356       .  S
O98        Eu124   2.397       .  S
O99        Eu126   2.346       .  S
O99        Eu649   2.352       .  S
O99        Eu953   2.387       .  S
C100        C228   1.484       .  S
C101        C192   1.485       .  S
C102        C200   1.417       .  S
C103        C201   1.418       .  S
H104        O105   0.966       .  S
O105       Eu126   2.359   1_554  S
O105       Eu649   2.356   1_554  S
O105       Eu676   2.402       .  S
H106        O107   0.965       .  S
O107       Eu127   2.352   1_556  S
O107       Eu401   2.391       .  S
O108        C131   1.319       .  A
O108       Eu400   2.608       .  S
O109        C132   1.317       .  A
O109       Eu125   2.598   1_545  S
O110        C133   1.284       .  A
O110       Eu126   2.426   1_554  S
O111        C134   1.282       .  A
O111       Eu127   2.418       .  S
O112        C135   1.284   1_545  A
O112       Eu403   2.433       .  S
O113        C136   1.284       .  A
O113       Eu402   2.431   1_565  S
O114        C137   1.284       .  A
O114       Eu680   2.444       .  S
O115        C138   1.278       .  A
O115       Eu128   2.410       .  S
O116        C137   1.284       .  A
O116       Eu402   2.443       .  S
O117        C138   1.286       .  A
O117       Eu403   2.453       .  S
O118        C133   1.320       .  A
O118       Eu676   2.617       .  S
O119        C136   1.316       .  A
O119       Eu677   2.595       .  S
O120        C135   1.320       .  A
O120       Eu125   2.619       .  S
O121        C134   1.320       .  A
O121       Eu124   2.615       .  S
O122        C131   1.285       .  A
O122       Eu128   2.437   1_554  S
O123        C132   1.285       .  A
O123       Eu128   2.436       .  S
Eu124       O384   2.636       .  S
Eu124       O670   2.618       .  S
Eu124       O657   2.411       .  S
Eu124       O418   2.395       .  S
Eu124       O958   2.395       .  S
Eu125       O365   2.620       .  S
Eu125       O671   2.612       .  S
Eu125       O129   2.392   1_565  S
Eu125       O927   2.377       .  S
Eu125       O383   2.373       .  S
Eu125       O692   2.387   1_565  S
Eu126       O389   2.431       .  S
Eu126       O392   2.439       .  S
Eu126       O416   2.356       .  S
Eu126       O406   2.362   1_556  S
Eu127       O388   2.447   1_554  S
Eu127       O393   2.433       .  S
Eu127       O405   2.351   1_554  S
Eu127       O418   2.363       .  S
Eu128       O666   2.430       .  S
Eu128       O129   2.358       .  S
Eu128       O142   2.361   1_556  S
Eu128       O692   2.346       .  S
Eu128       O682   2.354   1_556  S
O129       Eu403   2.346       .  S
O130       Eu952   2.400       .  S
O130       Eu402   2.359   1_554  S
O130       Eu680   2.351   1_554  S
C131        C193   1.488       .  S
C132        C224   1.482       .  S
C133        C184   1.487       .  S
C134        C188   1.483       .  S
C135        C213   1.490       .  S
C136        C220   1.481       .  S
C137        C209   1.427       .  S
C138        C208   1.420       .  S
H139        O140   0.965       .  S
O140       Eu677   2.385   1_545  S
O140       Eu402   2.353       .  S
O140       Eu680   2.354       .  S
H141        O142   0.966       .  S
O142       Eu400   2.403       .  S
O142       Eu403   2.358   1_554  S
N143        H175   1.041       .  S
N143        C148   1.353       .  A
N143        C147   1.351       .  A
N144        C151   1.347       .  A
N144        C152   1.349       .  A
N145        H176   1.040       .  S
N145        C150   1.350       .  A
N145        C149   1.351       .  A
N146        C153   1.344       .  A
N146        C154   1.347       .  A
C147        C155   1.390       .  A
C147        C163   1.410       .  A
C148        C164   1.407       .  A
C148        C156   1.387       .  A
C149        C157   1.387       .  A
C149        C166   1.407       .  A
C150        C165   1.408       .  A
C150        C158   1.388       .  A
C151        C163   1.403       .  A
C151        C159   1.388       .  A
C152        C166   1.405       .  A
C152        C160   1.386       .  A
C153        C161   1.387       .  A
C153        C164   1.398       .  A
C154        C162   1.387       .  A
C154        C165   1.403       .  A
C155        C156   1.369       .  A
C155        H167   1.082       .  S
C156        H168   1.083       .  S
C157        C158   1.370       .  A
C157        H169   1.082       .  S
C158        H170   1.082       .  S
C159        C160   1.370       .  A
C159        H171   1.083       .  S
C160        H172   1.082       .  S
C161        C162   1.372       .  A
C161        H173   1.083       .  S
C162        H174   1.082       .  S
C163        C197   1.436       .  S
C164        C204   1.437       .  S
C165        C205   1.437       .  S
C166        C212   1.442       .  S
C177        C261   1.522       .  S
C177        C741   1.521       .  S
C177        C748   1.521       .  S
C177        C820   1.526   1_455  S
C178        C181   1.522       .  S
C178        C185   1.519       .  S
C178        C269   1.518       .  S
C178        C549   1.521       .  S
C179        C221   1.519       .  S
C179        C225   1.518       .  S
C179        C229   1.522       .  S
C179        C785   1.517       .  S
C180        C241   1.511       .  S
C180        C492   1.520       .  S
C180        C493   1.517       .  S
C180        C516   1.517       .  S
C181        C182   1.240       .  T
C182        C183   1.467       .  S
C183        C184   1.239       .  T
C185        C186   1.239       .  T
C186        C187   1.464       .  S
C187        C188   1.238       .  T
C189        C729   1.519       .  S
C189        C190   1.239       .  T
C190        C191   1.464       .  S
C191        C192   1.238       .  T
C193        C194   1.240       .  T
C194        C195   1.467       .  S
C195        C196   1.240       .  T
C196        C729   1.523       .  S
C197        C198   1.196       .  T
C198        C199   1.396       .  S
C199        C200   1.196       .  T
C201        C202   1.196       .  T
C202        C203   1.398       .  S
C203        C204   1.198       .  T
C205        C206   1.198       .  T
C206        C207   1.398       .  S
C207        C208   1.197       .  T
C209        C210   1.201       .  T
C210        C211   1.403       .  S
C211        C212   1.201       .  T
C213        C214   1.241       .  T
C214        C215   1.468       .  S
C215        C216   1.241       .  T
C216        C456   1.522       .  S
C217        C456   1.517       .  S
C217        C218   1.237       .  T
C218        C219   1.462       .  S
C219        C220   1.236       .  T
C221        C222   1.238       .  T
C222        C223   1.463       .  S
C223        C224   1.237       .  T
C225        C226   1.239       .  T
C226        C227   1.464       .  S
C227        C228   1.238       .  T
C229        C230   1.240       .  T
C230        C231   1.467       .  S
C231        C232   1.239       .  T
C233        C731   1.508       .  S
C233        C234   1.233       .  T
C234        C235   1.454       .  S
C235        C236   1.232       .  T
C237        C238   1.239       .  T
C238        C239   1.466       .  S
C239        C240   1.240       .  T
C240        C456   1.521   1_545  S
C241        C242   1.234       .  T
C242        C243   1.457       .  S
C243        C244   1.233       .  T
C245        C246   1.198       .  T
C246        C247   1.401       .  S
C247        C248   1.200       .  T
C249        C250   1.200       .  T
C250        C251   1.402       .  S
C251        C252   1.199       .  T
C253        C254   1.203       .  T
C254        C255   1.407       .  S
C255        C256   1.203       .  T
C257        C258   1.204       .  T
C258        C259   1.409       .  S
C259        C260   1.204       .  T
C261        C262   1.240       .  T
C262        C263   1.467       .  S
C263        C264   1.240       .  T
C265        C266   1.239       .  T
C266        C267   1.467       .  S
C267        C268   1.240       .  T
C268        C729   1.522       .  S
C269        C270   1.238       .  T
C270        C271   1.463       .  S
C271        C272   1.237       .  T
C273        C454   1.522   1_545  S
C273        C274   1.240       .  T
C274        C275   1.467       .  S
C275        C276   1.239       .  T
O277        C288   1.321       .  A
O277       Eu313   2.619       .  S
O278        C289   1.316       .  A
O278       Eu312   2.597       .  S
O279        C290   1.281       .  A
O279       Eu285   2.423       .  S
O280        C291   1.281       .  A
O280       Eu285   2.431       .  S
O281        C291   1.285       .  A
O281       Eu315   2.453       .  S
O282        C290   1.285       .  A
O282       Eu314   2.451       .  S
O283        C289   1.284       .  A
O283       Eu285   2.431       .  S
O284        C288   1.283       .  A
O284       Eu285   2.427       .  S
Eu285       O295   2.359       .  S
Eu285       O287   2.360       .  S
Eu285       O286   2.345       .  S
Eu285       O293   2.357       .  S
O286       Eu315   2.341       .  S
O286       Eu312   2.390       .  S
O287       Eu313   2.396       .  S
O287       Eu314   2.360       .  S
C288        C552   1.487       .  S
C289        C513   1.481       .  S
C290        C521   1.422       .  S
C291        C528   1.429       .  S
H292        O293   0.965       .  S
O293       Eu314   2.354       .  S
O293       Eu312   2.383       .  S
H294        O295   0.966       .  S
O295       Eu313   2.412       .  S
O295       Eu315   2.356       .  S
O296        C319   1.319       .  A
O296       Eu312   2.612       .  S
O297        C320   1.321       .  A
O297       Eu313   2.627       .  S
O298        C321   1.283       .  A
O298       Eu314   2.427       .  S
O299        C322   1.283       .  A
O299       Eu315   2.425       .  S
O300        C323   1.284       .  A
O300       Eu315   2.428       .  S
O301        C324   1.282       .  A
O301       Eu314   2.421       .  S
O302        C325   1.280       .  A
O302       Eu316   2.421       .  S
O303        C326   1.283       .  A
O303       Eu316   2.436       .  S
O304        C325   1.286       .  A
O304       Eu314   2.456       .  S
O305        C326   1.279       .  A
O305       Eu315   2.416       .  S
O306        C321   1.320       .  A
O306       Eu312   2.619       .  S
O307        C324   1.321       .  A
O307       Eu313   2.622       .  S
O308        C323   1.321       .  A
O308       Eu313   2.618       .  S
O309        C322   1.318       .  A
O309       Eu312   2.606       .  S
O310        C319   1.281       .  A
O310       Eu316   2.414       .  S
O311        C320   1.284       .  A
O311       Eu316   2.433       .  S
Eu312       O330   2.379       .  S
Eu312       O318   2.374       .  S
Eu313       O317   2.390       .  S
Eu313       O328   2.397       .  S
Eu314       O328   2.367       .  S
Eu314       O318   2.343       .  S
Eu315       O317   2.364       .  S
Eu315       O330   2.359       .  S
Eu316       O317   2.347       .  S
Eu316       O328   2.359       .  S
Eu316       O330   2.349       .  S
Eu316       O318   2.351       .  S
C319        C520   1.482       .  S
C320        C548   1.496       .  S
C321        C508   1.488       .  S
C322        C512   1.481       .  S
C323        C540   1.489       .  S
C324        C541   1.487       .  S
C325        C533   1.425       .  S
C326        C532   1.412       .  S
H327        O328   0.966       .  S
H329        O330   0.965       .  S
N331        H363   1.039       .  S
N331        C888   1.354   1_455  A
N331        C335   1.352       .  A
N332        C340   1.345       .  A
N333        H364   1.041       .  S
N333        C890   1.353   1_455  A
N333        C337   1.350       .  A
N334        C342   1.350   1_545  A
C335        C343   1.389       .  A
C335        C351   1.412       .  A
C336        N883   1.352       .  A
C336        C352   1.410       .  A
C336        C344   1.388       .  A
C337        C345   1.388       .  A
C337        C354   1.406       .  A
C338        N885   1.353       .  A
C338        C353   1.415       .  A
C338        C346   1.390       .  A
C339        C351   1.406       .  A
C339        C347   1.387       .  A
C340        C354   1.403       .  A
C340        C348   1.389       .  A
C341        C349   1.387       .  A
C341        C352   1.405       .  A
C342        C350   1.388       .  A
C342        C353   1.409       .  A
C343        C896   1.370       .  A
C343        H355   1.082       .  S
C344        C895   1.370       .  A
C344        H356   1.082       .  S
C345        C898   1.370   1_455  A
C345        H357   1.082       .  S
C346        C897   1.369       .  A
C346        H358   1.082       .  S
C347        H359   1.082       .  S
C348        H360   1.083       .  S
C349        H361   1.083       .  S
C350        H362   1.083       .  S
C351        C525   1.444       .  S
C352        C524   1.441       .  S
C353        C536   1.444       .  S
C354        C529   1.431       .  S
O365        C376   1.320       .  A
O366        C377   1.319       .  A
O366       Eu400   2.613   1_565  S
O367        C378   1.281       .  A
O367       Eu925   2.426       .  S
O368        C379   1.284       .  A
O368       Eu373   2.439       .  S
O369        C379   1.282       .  A
O369       Eu403   2.427   1_565  S
O370        C378   1.283       .  A
O370       Eu402   2.438   1_565  S
O371        C377   1.285       .  A
O371       Eu373   2.436   1_554  S
O372        C376   1.282       .  A
O372       Eu373   2.419       .  S
Eu373       O919   2.447       .  S
Eu373       O383   2.357       .  S
Eu373       O927   2.343       .  S
Eu373       O374   2.356   1_556  S
Eu373       O933   2.357   1_556  S
O374       Eu403   2.365   1_564  S
O374       Eu400   2.391   1_565  S
O375       Eu925   2.348       .  S
O375       Eu677   2.385       .  S
O375       Eu402   2.345   1_565  S
C376        C504   1.485       .  S
C377        C468   1.490       .  S
C378        C476   1.421       .  S
C379        C477   1.416       .  S
H380        O381   0.966       .  S
O381       Eu925   2.358   1_554  S
O381       Eu402   2.369   1_564  S
O381       Eu952   2.403   1_565  S
H382        O383   0.965       .  S
O383       Eu403   2.357   1_565  S
O384        C407   1.323       .  A
O385        C408   1.318       .  A
O385       Eu401   2.609       .  S
O386        C409   1.283       .  A
O386       Eu402   2.426   1_554  S
O387        C410   1.284   1_545  A
O387       Eu403   2.429   1_554  S
O388        C411   1.286       .  A
O389        C412   1.284       .  A
O390        C413   1.282       .  A
O390       Eu956   2.430       .  S
O391        C414   1.283       .  A
O391       Eu404   2.443       .  S
O392        C413   1.284       .  A
O393        C414   1.283       .  A
O394        C409   1.321       .  A
O394       Eu952   2.621       .  S
O395        C412   1.318       .  A
O395       Eu953   2.609       .  S
O396        C411   1.316       .  A
O396       Eu401   2.595       .  S
O397        C410   1.320       .  A
O397       Eu400   2.615   1_565  S
O398        C407   1.283       .  A
O398       Eu404   2.430       .  S
O399        C408   1.283       .  A
O399       Eu404   2.426   1_556  S
Eu400       O946   2.606       .  S
Eu400       O933   2.399   1_545  S
Eu400       O682   2.401       .  S
Eu401       O947   2.621       .  S
Eu401       O651   2.378       .  S
Eu401       O405   2.391       .  S
Eu401       O968   2.370       .  S
Eu404       O942   2.434   1_554  S
Eu404       O405   2.354   1_554  S
Eu404       O968   2.349   1_554  S
Eu404       O418   2.349       .  S
Eu404       O958   2.365       .  S
O406       Eu676   2.394       .  S
O406       Eu956   2.355   1_554  S
C407        C469   1.497       .  S
C408        C500   1.485       .  S
C409        C460   1.488       .  S
C410        C464   1.488       .  S
C411        C489   1.486       .  S
C412        C496   1.484       .  S
C413        C485   1.418       .  S
C414        C484   1.424   1_554  S
H415        O416   0.965       .  S
O416       Eu953   2.378       .  S
O416       Eu956   2.357       .  S
H417        O418   0.966       .  S
N419        H451   1.038       .  S
N419        C424   1.350       .  A
N419        C423   1.353       .  A
N420        C427   1.346       .  A
N420        C428   1.346       .  A
N421        H452   1.040       .  S
N421        C426   1.353       .  A
N421        C425   1.352       .  A
N422        C429   1.347       .  A
N422        C430   1.348       .  A
C423        C431   1.387       .  A
C423        C439   1.408       .  A
C424        C440   1.410       .  A
C424        C432   1.389       .  A
C425        C433   1.388       .  A
C425        C442   1.410       .  A
C426        C441   1.409       .  A
C426        C434   1.388       .  A
C427        C439   1.401       .  A
C427        C435   1.385       .  A
C428        C442   1.403       .  A
C428        C436   1.388       .  A
C429        C437   1.389       .  A
C429        C440   1.407       .  A
C430        C438   1.386       .  A
C430        C441   1.404       .  A
C431        C432   1.368       .  A
C431        H443   1.082       .  S
C432        H444   1.082       .  S
C433        C434   1.367       .  A
C433        H445   1.082       .  S
C434        H446   1.082       .  S
C435        C436   1.372       .  A
C435        H447   1.083       .  S
C436        H448   1.083       .  S
C437        C438   1.370       .  A
C437        H449   1.083       .  S
C438        H450   1.083       .  S
C439        C473   1.440       .  S
C440        C480   1.434       .  S
C441        C481   1.442       .  S
C442        C488   1.436       .  S
C453       C1017   1.533       .  S
C453       C1024   1.530       .  S
C453        C537   1.524       .  S
C453       C1096   1.527   1_455  S
C454        C457   1.522   1_565  S
C454        C461   1.523       .  S
C454        C545   1.530       .  S
C455        C497   1.521       .  S
C455        C501   1.519       .  S
C455        C505   1.522       .  S
C455       C1061   1.524       .  S
C456        C517   1.517       .  S
C457        C458   1.240       .  T
C458        C459   1.467       .  S
C459        C460   1.240       .  T
C461        C462   1.241       .  T
C462        C463   1.468       .  S
C463        C464   1.240       .  T
C465       C1005   1.525       .  S
C465        C466   1.242       .  T
C466        C467   1.470       .  S
C467        C468   1.241       .  T
C469        C470   1.246       .  T
C470        C471   1.476       .  S
C471        C472   1.245       .  T
C472       C1005   1.531       .  S
C473        C474   1.200       .  T
C474        C475   1.401       .  S
C475        C476   1.199       .  T
C477        C478   1.195       .  T
C478        C479   1.395       .  S
C479        C480   1.195       .  T
C481        C482   1.200       .  T
C482        C483   1.401       .  S
C483        C484   1.199       .  T
C485        C486   1.196       .  T
C486        C487   1.397       .  S
C487        C488   1.197       .  T
C489        C490   1.238       .  T
C490        C491   1.465       .  S
C491        C492   1.239       .  T
C493        C494   1.238       .  T
C494        C495   1.464       .  S
C495        C496   1.238       .  T
C497        C498   1.239       .  T
C498        C499   1.465       .  S
C499        C500   1.238       .  T
C501        C502   1.239       .  T
C502        C503   1.465       .  S
C503        C504   1.239       .  T
C505        C506   1.240       .  T
C506        C507   1.468       .  S
C507        C508   1.240       .  T
C509       C1007   1.516       .  S
C509        C510   1.237       .  T
C510        C511   1.462       .  S
C511        C512   1.236       .  T
C513        C514   1.236       .  T
C514        C515   1.462       .  S
C515        C516   1.237       .  T
C517        C518   1.238       .  T
C518        C519   1.463       .  S
C519        C520   1.237       .  T
C521        C522   1.199       .  T
C522        C523   1.402       .  S
C523        C524   1.200       .  T
C525        C526   1.202       .  T
C526        C527   1.406       .  S
C527        C528   1.202       .  T
C529        C530   1.194       .  T
C530        C531   1.392       .  S
C531        C532   1.193       .  T
C533        C534   1.201       .  T
C534        C535   1.403       .  S
C535        C536   1.201       .  T
C537        C538   1.241       .  T
C538        C539   1.469       .  S
C539        C540   1.241       .  T
C541        C542   1.240       .  T
C542        C543   1.467       .  S
C543        C544   1.240       .  T
C544       C1005   1.522       .  S
C545        C546   1.245       .  T
C546        C547   1.474       .  S
C547        C548   1.244       .  T
C549        C550   1.240       .  T
C550        C551   1.467       .  S
C551        C552   1.240       .  T
O553        C564   1.320       .  A
O553       Eu589   2.614       .  S
O554        C565   1.317       .  A
O554       Eu588   2.599       .  S
O555        C566   1.283       .  A
O555       Eu561   2.433       .  S
O556        C567   1.282       .  A
O556       Eu561   2.434       .  S
O557        C567   1.284       .  A
O557       Eu591   2.445       .  S
O558        C566   1.283       .  A
O558       Eu590   2.435       .  S
O559        C565   1.283       .  A
O559       Eu561   2.424       .  S
O560        C564   1.284       .  A
O560       Eu561   2.430       .  S
Eu561       O571   2.360       .  S
Eu561       O563   2.355       .  S
Eu561       O562   2.342       .  S
Eu561       O569   2.354       .  S
O562       Eu591   2.345       .  S
O562       Eu588   2.379       .  S
O563       Eu589   2.390       .  S
O563       Eu590   2.356       .  S
C564        C828   1.488       .  S
C565        C789   1.480       .  S
C566        C797   1.419       .  S
C567        C804   1.427       .  S
H568        O569   0.965       .  S
O569       Eu590   2.356       .  S
O569       Eu588   2.388       .  S
H570        O571   0.966       .  S
O571       Eu589   2.405       .  S
O571       Eu591   2.362       .  S
O572        C595   1.318       .  A
O572       Eu588   2.610       .  S
O573        C596   1.319       .  A
O573       Eu589   2.614       .  S
O574        C597   1.282       .  A
O574       Eu590   2.421       .  S
O575        C598   1.280       .  A
O575       Eu591   2.412       .  S
O576        C599   1.284       .  A
O576       Eu591   2.431       .  S
O577        C600   1.283       .  A
O577       Eu590   2.428       .  S
O578        C601   1.279       .  A
O578       Eu592   2.417       .  S
O579        C602   1.282       .  A
O579       Eu592   2.433       .  S
O580        C601   1.284       .  A
O580       Eu590   2.439       .  S
O581        C602   1.285       .  A
O581       Eu591   2.447       .  S
O582        C597   1.317       .  A
O582       Eu588   2.601       .  S
O583        C600   1.321       .  A
O583       Eu589   2.624       .  S
O584        C599   1.319       .  A
O584       Eu589   2.609       .  S
O585        C598   1.320       .  A
O585       Eu588   2.614       .  S
O586        C595   1.281       .  A
O586       Eu592   2.419       .  S
O587        C596   1.281       .  A
O587       Eu592   2.417       .  S
Eu588       O606   2.378       .  S
Eu588       O594   2.387       .  S
Eu589       O593   2.397       .  S
Eu589       O604   2.390       .  S
Eu590       O604   2.351       .  S
Eu590       O594   2.354       .  S
Eu591       O593   2.358       .  S
Eu591       O606   2.355       .  S
Eu592       O593   2.353       .  S
Eu592       O604   2.355       .  S
Eu592       O606   2.346       .  S
Eu592       O594   2.352       .  S
C595        C796   1.482       .  S
C596        C824   1.484       .  S
C597        C784   1.477       .  S
C598        C788   1.480       .  S
C599        C816   1.486       .  S
C600        C817   1.491       .  S
C601        C809   1.416       .  S
C602        C808   1.425       .  S
H603        O604   0.966       .  S
H605        O606   0.965       .  S
N607        H639   1.034       .  S
N607        C611   1.352       .  A
N608        C891   1.348       .  A
N608        C616   1.347       .  A
N609        H640   1.040       .  S
N609        C613   1.353       .  A
N610        C893   1.350       .  A
N610        C618   1.347       .  A
C611        C619   1.390       .  A
C611        C627   1.414       .  A
C612        C628   1.407       .  A
C612        C620   1.389   1_655  A
C613        C621   1.388       .  A
C613        C630   1.412       .  A
C614        C629   1.412       .  A
C614        C622   1.390       .  A
C615        N884   1.351   1_545  A
C615        C627   1.410       .  A
C615        C623   1.386       .  A
C616        C630   1.405       .  A
C616        C624   1.387       .  A
C617        N886   1.347       .  A
C617        C625   1.388       .  A
C617        C628   1.406       .  A
C618        C626   1.388       .  A
C618        C629   1.404       .  A
C619        H631   1.082       .  S
C620        H632   1.082   1_455  S
C621        H633   1.082       .  S
C622        H634   1.082       .  S
C623        C900   1.369   1_545  A
C623        H635   1.083       .  S
C624        C899   1.373       .  A
C624        H636   1.083       .  S
C625        C902   1.373   1_545  A
C625        H637   1.082       .  S
C626        C901   1.371       .  A
C626        H638   1.083       .  S
C627        C801   1.444       .  S
C628        C800   1.435       .  S
C629        C812   1.435       .  S
C630        C805   1.443       .  S
O641        C652   1.316       .  A
O641       Eu953   2.594       .  S
O642        C653   1.318       .  A
O642       Eu676   2.603       .  S
O643        C654   1.282       .  A
O644        C655   1.283       .  A
O644       Eu649   2.436   1_655  S
O645        C655   1.282       .  A
O645       Eu679   2.432       .  S
O646        C654   1.286       .  A
O646       Eu678   2.458   1_556  S
O647        C653   1.285       .  A
O647       Eu649   2.434   1_554  S
O648        C652   1.283       .  A
O648       Eu649   2.427       .  S
Eu649       O659   2.351   1_455  S
Eu649       O650   2.354   1_456  S
O650       Eu679   2.349   1_554  S
O650       Eu676   2.396   1_655  S
O651       Eu678   2.343   1_556  S
C652        C780   1.478       .  S
C653        C744   1.485       .  S
C654        C752   1.431       .  S
C655        C753   1.421       .  S
H656        O657   0.966       .  S
O657       Eu678   2.362       .  S
H658        O659   0.965       .  S
O659       Eu953   2.387   1_655  S
O659       Eu679   2.354       .  S
O660        C683   1.319       .  A
O660       Eu952   2.611       .  S
O661        C684   1.319       .  A
O661       Eu677   2.611   1_545  S
O662        C685   1.286       .  A
O662       Eu678   2.441       .  S
O663        C686   1.286       .  A
O663       Eu679   2.445   1_554  S
O664        C687   1.282       .  A
O664       Eu955   2.418   1_545  S
O665        C688   1.282       .  A
O665       Eu954   2.419       .  S
O666        C689   1.282       .  A
O667        C690   1.282       .  A
O667       Eu680   2.430   1_655  S
O668        C689   1.284       .  A
O668       Eu954   2.447       .  S
O669        C690   1.284       .  A
O669       Eu955   2.440   1_545  S
O670        C685   1.320       .  A
O671        C688   1.319   1_565  A
O672        C687   1.318       .  A
O672       Eu677   2.607   1_645  S
O673        C686   1.321       .  A
O673       Eu676   2.625   1_655  S
O674        C683   1.284       .  A
O674       Eu680   2.432   1_554  S
O675        C684   1.282       .  A
O675       Eu680   2.420       .  S
Eu676       O936   2.631       .  S
Eu676       O970   2.397   1_455  S
Eu677       O917   2.607       .  S
Eu677       O935   2.382   1_455  S
Eu677       O681   2.373   1_465  S
Eu678       O941   2.413   1_554  S
Eu678       O944   2.443   1_554  S
Eu678       O968   2.357   1_554  S
Eu678       O958   2.368       .  S
Eu679       O940   2.422       .  S
Eu679       O945   2.426       .  S
Eu679       O957   2.351       .  S
Eu679       O970   2.365   1_556  S
Eu680       O681   2.345   1_455  S
Eu680       O694   2.366   1_456  S
O681       Eu955   2.347   1_545  S
O682       Eu954   2.351   1_554  S
C683        C745   1.487       .  S
C684        C776   1.482       .  S
C685        C736   1.493       .  S
C686        C740   1.499       .  S
C687        C765   1.480       .  S
C688        C772   1.483       .  S
C689        C761   1.425       .  S
C690        C760   1.423       .  S
H691        O692   0.965       .  S
O692       Eu954   2.344       .  S
H693        O694   0.966       .  S
O694       Eu952   2.400   1_655  S
O694       Eu955   2.366   1_544  S
N695        H727   1.039       .  S
N695        C700   1.353       .  A
N695        C699   1.353       .  A
N696        C703   1.349       .  A
N696        C704   1.349       .  A
N697        H728   1.038       .  S
N697        C702   1.353       .  A
N697        C701   1.353       .  A
N698        C705   1.349       .  A
N698        C706   1.350       .  A
C699        C707   1.389       .  A
C699        C715   1.413       .  A
C700        C716   1.410       .  A
C700        C708   1.387       .  A
C701        C709   1.388       .  A
C701        C718   1.412       .  A
C702        C717   1.411       .  A
C702        C710   1.388       .  A
C703        C715   1.408       .  A
C703        C711   1.387       .  A
C704        C718   1.406       .  A
C704        C712   1.386       .  A
C705        C713   1.388       .  A
C705        C716   1.407       .  A
C706        C714   1.387       .  A
C706        C717   1.407       .  A
C707        C708   1.369       .  A
C707        H719   1.082       .  S
C708        H720   1.082       .  S
C709        C710   1.368       .  A
C709        H721   1.082       .  S
C710        H722   1.082       .  S
C711        C712   1.372       .  A
C711        H723   1.083       .  S
C712        H724   1.083       .  S
C713        C714   1.368       .  A
C713        H725   1.083       .  S
C714        H726   1.083       .  S
C715        C749   1.446       .  S
C716        C756   1.441       .  S
C717        C757   1.441       .  S
C718        C764   1.444       .  S
C729        C813   1.520       .  S
C730        C733   1.526       .  S
C730        C737   1.533       .  S
C730        C821   1.520       .  S
C730       C1101   1.529       .  S
C731        C773   1.516       .  S
C731        C777   1.514       .  S
C731        C781   1.511   1_455  S
C732       C1044   1.518       .  S
C732       C1045   1.519       .  S
C732       C1068   1.516       .  S
C732        C793   1.516       .  S
C733        C734   1.243       .  T
C734        C735   1.471       .  S
C735        C736   1.242       .  T
C737        C738   1.246       .  T
C738        C739   1.477       .  S
C739        C740   1.246       .  T
C741        C742   1.239       .  T
C742        C743   1.465       .  S
C743        C744   1.238       .  T
C745        C746   1.239       .  T
C746        C747   1.466       .  S
C747        C748   1.239       .  T
C749        C750   1.203       .  T
C750        C751   1.408       .  S
C751        C752   1.204       .  T
C753        C754   1.198       .  T
C754        C755   1.400       .  S
C755        C756   1.199       .  T
C757        C758   1.199       .  T
C758        C759   1.401       .  S
C759        C760   1.199       .  T
C761        C762   1.201       .  T
C762        C763   1.405       .  S
C763        C764   1.202       .  T
C765        C766   1.236       .  T
C766        C767   1.461       .  S
C767        C768   1.237       .  T
C768       C1008   1.515       .  S
C769       C1008   1.519       .  S
C769        C770   1.239       .  T
C770        C771   1.464       .  S
C771        C772   1.238       .  T
C773        C774   1.237       .  T
C774        C775   1.463       .  S
C775        C776   1.237       .  T
C777        C778   1.236       .  T
C778        C779   1.460       .  S
C779        C780   1.235       .  T
C781        C782   1.234       .  T
C782        C783   1.458       .  S
C783        C784   1.234       .  T
C785        C786   1.238       .  T
C786        C787   1.463       .  S
C787        C788   1.237       .  T
C789        C790   1.236       .  T
C790        C791   1.461       .  S
C791        C792   1.237       .  T
C792       C1008   1.515       .  S
C793        C794   1.237       .  T
C794        C795   1.463       .  S
C795        C796   1.237       .  T
C797        C798   1.196       .  T
C798        C799   1.397       .  S
C799        C800   1.197       .  T
C801        C802   1.201       .  T
C802        C803   1.404       .  S
C803        C804   1.201       .  T
C805        C806   1.201       .  T
C806        C807   1.404       .  S
C807        C808   1.200       .  T
C809        C810   1.195       .  T
C810        C811   1.395       .  S
C811        C812   1.196       .  T
C813        C814   1.239       .  T
C814        C815   1.466       .  S
C815        C816   1.239       .  T
C817        C818   1.242       .  T
C818        C819   1.471       .  S
C819        C820   1.243       .  T
C821        C822   1.239       .  T
C822        C823   1.465       .  S
C823        C824   1.238       .  T
C825       C1006   1.524       .  S
C825        C826   1.241       .  T
C826        C827   1.468       .  S
C827        C828   1.240       .  T
O829        C840   1.322       .  A
O829       Eu865   2.625       .  S
O830        C841   1.317       .  A
O830       Eu864   2.600       .  S
O831        C842   1.284       .  A
O831       Eu837   2.440       .  S
O832        C843   1.281       .  A
O832       Eu837   2.428       .  S
O833        C843   1.284       .  A
O833       Eu867   2.439       .  S
O834        C842   1.284       .  A
O834       Eu866   2.443       .  S
O835        C841   1.283       .  A
O835       Eu837   2.425       .  S
O836        C840   1.283       .  A
O836       Eu837   2.427       .  S
Eu837       O847   2.363       .  S
Eu837       O839   2.352       .  S
Eu837       O838   2.341       .  S
Eu837       O845   2.351       .  S
O838       Eu867   2.342       .  S
O838       Eu864   2.373       .  S
O839       Eu865   2.389       .  S
O839       Eu866   2.357       .  S
C840       C1104   1.492       .  S
C841       C1065   1.481       .  S
C842       C1073   1.426       .  S
C843       C1080   1.423       .  S
H844        O845   0.965       .  S
O845       Eu866   2.360       .  S
O845       Eu864   2.389       .  S
H846        O847   0.966       .  S
O847       Eu865   2.403       .  S
O847       Eu867   2.365       .  S
O848        C871   1.318       .  A
O848       Eu864   2.607       .  S
O849        C872   1.320       .  A
O849       Eu865   2.619       .  S
O850        C873   1.283       .  A
O850       Eu866   2.423       .  S
O851        C874   1.283       .  A
O851       Eu867   2.428       .  S
O852        C875   1.284       .  A
O852       Eu867   2.432       .  S
O853        C876   1.285       .  A
O853       Eu866   2.436       .  S
O854        C877   1.280       .  A
O854       Eu868   2.417       .  S
O855        C878   1.284       .  A
O855       Eu868   2.443       .  S
O856        C877   1.287       .  A
O856       Eu866   2.458       .  S
O857        C878   1.283       .  A
O857       Eu867   2.439       .  S
O858        C873   1.318       .  A
O858       Eu864   2.605       .  S
O859        C876   1.320       .  A
O859       Eu865   2.612       .  S
O860        C875   1.318       .  A
O860       Eu865   2.605       .  S
O861        C874   1.320       .  A
O861       Eu864   2.615       .  S
O862        C871   1.283       .  A
O862       Eu868   2.430       .  S
O863        C872   1.284       .  A
O863       Eu868   2.431       .  S
Eu864       O882   2.393       .  S
Eu864       O870   2.376       .  S
Eu865       O869   2.397       .  S
Eu865       O880   2.406       .  S
Eu866       O880   2.362       .  S
Eu866       O870   2.345       .  S
Eu867       O869   2.354       .  S
Eu867       O882   2.361       .  S
Eu868       O869   2.353       .  S
Eu868       O880   2.371       .  S
Eu868       O882   2.355       .  S
Eu868       O870   2.345       .  S
C871       C1072   1.485       .  S
C872       C1100   1.490       .  S
C873       C1060   1.480       .  S
C874       C1064   1.487       .  S
C875       C1092   1.484       .  S
C876       C1093   1.490       .  S
C877       C1085   1.425       .  S
C878       C1084   1.426       .  S
H879        O880   0.966       .  S
H881        O882   0.966       .  S
N883        H915   1.039       .  S
N883        C887   1.352       .  A
N884        C892   1.349       .  A
N885        H916   1.036       .  S
N885        C889   1.354       .  A
N886        C894   1.347   1_545  A
C887        C895   1.389       .  A
C887        C903   1.412       .  A
C888        C904   1.410       .  A
C888        C896   1.386   1_655  A
C889        C897   1.387       .  A
C889        C906   1.413       .  A
C890        C905   1.410       .  A
C890        C898   1.389       .  A
C891        C903   1.406       .  A
C891        C899   1.387       .  A
C892        C906   1.409       .  A
C892        C900   1.388       .  A
C893        C901   1.387       .  A
C893        C904   1.406       .  A
C894        C902   1.385       .  A
C894        C905   1.401       .  A
C895        H907   1.082       .  S
C896        H908   1.082   1_455  S
C897        H909   1.082       .  S
C898        H910   1.082       .  S
C899        H911   1.083       .  S
C900        H912   1.082       .  S
C901        H913   1.083       .  S
C902        H914   1.083       .  S
C903       C1077   1.441       .  S
C904       C1076   1.446       .  S
C905       C1088   1.441       .  S
C906       C1081   1.445       .  S
O917        C928   1.318       .  A
O918        C929   1.322       .  A
O918       Eu952   2.625   1_565  S
O919        C930   1.284       .  A
O920        C931   1.281       .  A
O920       Eu925   2.423   1_655  S
O921        C931   1.286       .  A
O921       Eu955   2.454       .  S
O922        C930   1.280       .  A
O922       Eu954   2.416   1_565  S
O923        C929   1.284       .  A
O923       Eu925   2.435   1_554  S
O924        C928   1.283       .  A
O924       Eu925   2.427       .  S
Eu925       O935   2.360   1_455  S
Eu925       O926   2.354   1_456  S
O926       Eu955   2.355   1_554  S
O926       Eu952   2.392   1_665  S
O927       Eu954   2.352   1_565  S
C928       C1056   1.483       .  S
C929       C1020   1.497       .  S
C930       C1028   1.420       .  S
C931       C1029   1.423       .  S
H932        O933   0.966       .  S
O933       Eu954   2.365   1_564  S
H934        O935   0.965       .  S
O935       Eu955   2.352       .  S
O936        C959   1.323       .  A
O937        C960   1.318       .  A
O937       Eu953   2.609       .  S
O938        C961   1.284       .  A
O938       Eu954   2.431   1_554  S
O939        C962   1.284   1_565  A
O939       Eu955   2.430   1_554  S
O940        C963   1.282       .  A
O941        C964   1.282       .  A
O942        C965   1.283       .  A
O943        C966   1.283       .  A
O943       Eu956   2.435   1_655  S
O944        C965   1.285       .  A
O945        C966   1.282       .  A
O946        C961   1.318       .  A
O947        C964   1.321       .  A
O948        C963   1.318       .  A
O948       Eu953   2.607   1_655  S
O949        C962   1.322       .  A
O949       Eu952   2.628   1_655  S
O950        C959   1.283       .  A
O950       Eu956   2.428   1_554  S
O951        C960   1.282       .  A
O951       Eu956   2.421       .  S
Eu953       O957   2.379   1_455  S
Eu956       O957   2.341   1_455  S
Eu956       O970   2.363   1_456  S
C959       C1021   1.496       .  S
C960       C1052   1.482       .  S
C961       C1012   1.486   1_545  S
C962       C1016   1.495       .  S
C963       C1041   1.482       .  S
C964       C1048   1.483       .  S
C965       C1037   1.422       .  S
C966       C1036   1.420       .  S
H967        O968   0.964       .  S
H969        O970   0.966       .  S
N971       H1003   1.040       .  S
N971        C976   1.353       .  A
N971        C975   1.351       .  A
N972        C979   1.347       .  A
N972        C980   1.348       .  A
N973       H1004   1.040       .  S
N973        C978   1.351       .  A
N973        C977   1.351       .  A
N974        C981   1.345       .  A
N974        C982   1.346       .  A
C975        C983   1.388       .  A
C975        C991   1.409       .  A
C976        C992   1.409       .  A
C976        C984   1.388       .  A
C977        C985   1.389       .  A
C977        C994   1.408       .  A
C978        C993   1.408       .  A
C978        C986   1.388       .  A
C979        C991   1.406       .  A
C979        C987   1.388       .  A
C980        C994   1.405       .  A
C980        C988   1.386       .  A
C981        C989   1.386       .  A
C981        C992   1.401       .  A
C982        C990   1.387       .  A
C982        C993   1.404       .  A
C983        C984   1.370       .  A
C983        H995   1.082       .  S
C984        H996   1.082       .  S
C985        C986   1.370       .  A
C985        H997   1.082       .  S
C986        H998   1.082       .  S
C987        C988   1.373       .  A
C987        H999   1.083       .  S
C988       H1000   1.083       .  S
C989        C990   1.373       .  A
C989       H1001   1.083       .  S
C990       H1002   1.083       .  S
C991       C1025   1.437       .  S
C992       C1032   1.440       .  S
C993       C1033   1.437       .  S
C994       C1040   1.439       .  S
C1005      C1089   1.519       .  S
C1006      C1009   1.522   1_545  S
C1006      C1013   1.529   1_545  S
C1006      C1097   1.524   1_545  S
C1007      C1049   1.516       .  S
C1007      C1053   1.517       .  S
C1007      C1057   1.515   1_455  S
C1008      C1069   1.519   1_545  S
C1009      C1010   1.240       .  T
C1010      C1011   1.466       .  S
C1011      C1012   1.239       .  T
C1013      C1014   1.244       .  T
C1014      C1015   1.473   1_565  S
C1015      C1016   1.244       .  T
C1017      C1018   1.246       .  T
C1018      C1019   1.477       .  S
C1019      C1020   1.245       .  T
C1021      C1022   1.245       .  T
C1022      C1023   1.475       .  S
C1023      C1024   1.245       .  T
C1025      C1026   1.197       .  T
C1026      C1027   1.398       .  S
C1027      C1028   1.197       .  T
C1029      C1030   1.199       .  T
C1030      C1031   1.401       .  S
C1031      C1032   1.200       .  T
C1033      C1034   1.197       .  T
C1034      C1035   1.398       .  S
C1035      C1036   1.197       .  T
C1037      C1038   1.198       .  T
C1038      C1039   1.400       .  S
C1039      C1040   1.199       .  T
C1041      C1042   1.237       .  T
C1042      C1043   1.464       .  S
C1043      C1044   1.239       .  T
C1045      C1046   1.239       .  T
C1046      C1047   1.465       .  S
C1047      C1048   1.238       .  T
C1049      C1050   1.237       .  T
C1050      C1051   1.462       .  S
C1051      C1052   1.237       .  T
C1053      C1054   1.238       .  T
C1054      C1055   1.463       .  S
C1055      C1056   1.237       .  T
C1057      C1058   1.236       .  T
C1058      C1059   1.461       .  S
C1059      C1060   1.235       .  T
C1061      C1062   1.241       .  T
C1062      C1063   1.468       .  S
C1063      C1064   1.240       .  T
C1065      C1066   1.236       .  T
C1066      C1067   1.461       .  S
C1067      C1068   1.237       .  T
C1069      C1070   1.239       .  T
C1070      C1071   1.465       .  S
C1071      C1072   1.239       .  T
C1073      C1074   1.201       .  T
C1074      C1075   1.406       .  S
C1075      C1076   1.202       .  T
C1077      C1078   1.200       .  T
C1078      C1079   1.402       .  S
C1079      C1080   1.199       .  T
C1081      C1082   1.201       .  T
C1082      C1083   1.404       .  S
C1083      C1084   1.201       .  T
C1085      C1086   1.201       .  T
C1086      C1087   1.404       .  S
C1087      C1088   1.201       .  T
C1089      C1090   1.238       .  T
C1090      C1091   1.464       .  S
C1091      C1092   1.238       .  T
C1093      C1094   1.241       .  T
C1094      C1095   1.470       .  S
C1095      C1096   1.242       .  T
C1097      C1098   1.241       .  T
C1098      C1099   1.469       .  S
C1099      C1100   1.241       .  T
C1101      C1102   1.244       .  T
C1102      C1103   1.473       .  S
C1103      C1104   1.243       .  T
