geometry optimzed in LAMMPS
_audit_creation_date              2020-11-30 
_audit_creation_method            'lammps2cif' 
_symmetry_space_group_name_H-M    'P1' 
_symmetry_Int_Tables_number       1 
_symmetry_cell_setting            triclinic 
loop_ 
_symmetry_equiv_pos_as_xyz 
  x,y,z 
_cell_length_a                    37.184516535177025 
_cell_length_b                    37.06593861594278 
_cell_length_c                    37.2614317488471 
_cell_angle_alpha                 90.52841080460045 
_cell_angle_beta                  89.78175789097277 
_cell_angle_gamma                 90.42099119420699 
loop_ 
_atom_site_label 
_atom_site_type_symbol 
_atom_site_fract_x 
_atom_site_fract_y 
_atom_site_fract_z 
_atom_site_charge 
C1          C  0.13303303  0.89105620  0.53378241     0.00870
C2          C  0.10538552  0.86303057  0.53382762     0.00870
C3          C  0.08582642  0.85408426  0.50107855     0.00870
C4          C  0.10713126  0.85898681  0.46826169     0.00870
C5          C  0.13494152  0.88741677  0.46778552     0.00870
C6          C  0.14105343  0.90834308  0.50023314     0.00870
C7          C  0.13444698  0.08892600  0.46432537     0.00870
C8          C  0.13918473  0.07091758  0.49806915     0.00870
C9          C  0.13141636  0.09206179  0.53003528     0.00870
C10         C  0.10664702  0.12241393  0.52689449     0.00870
C11         C  0.08867549  0.12819314  0.49284466     0.00870
C12         C  0.10867381  0.11763298  0.46172892     0.00870
C13         C  0.90639630  0.11906305  0.53186638     0.00870
C14         C  0.92649774  0.12716713  0.49916569     0.00870
C15         C  0.90824857  0.11814907  0.46625632     0.00870
C16         C  0.88301998  0.08829811  0.46583159     0.00870
C17         C  0.87698700  0.06804963  0.49819659     0.00870
C18         C  0.88286519  0.08686692  0.53185447     0.00870
C19         C  0.89874088  0.85048519  0.46790109     0.00870
C20         C  0.92160102  0.84586650  0.49916723     0.00870
C21         C  0.90643235  0.85927711  0.53213441     0.00870
C22         C  0.88148613  0.88865267  0.53178663     0.00870
C23         C  0.87384239  0.90567342  0.49854845     0.00870
C24         C  0.87719659  0.88368541  0.46652390     0.00870
C25         C  0.48159021  0.12285470  0.10171516     0.00870
C26         C  0.51464208  0.12259682  0.08106096     0.00870
C27         C  0.54606561  0.11290484  0.10071492     0.00870
C28         C  0.54324884  0.09099423  0.13268669     0.00870
C29         C  0.50871582  0.07357353  0.13836543     0.00870
C30         C  0.47763724  0.09464917  0.12836705     0.00870
C31         C  0.47488012  0.11111139  0.90332071     0.00870
C32         C  0.50815840  0.11893423  0.92084657     0.00870
C33         C  0.54069629  0.11289882  0.90137767     0.00870
C34         C  0.54041911  0.08713243  0.87212266     0.00870
C35         C  0.50729416  0.06838753  0.86292856     0.00870
C36         C  0.47460320  0.08628232  0.87327725     0.00870
C37         C  0.47758329  0.89021076  0.13211898     0.00870
C38         C  0.50916508  0.91222352  0.13524288     0.00870
C39         C  0.54294726  0.89613659  0.12551525     0.00870
C40         C  0.54312991  0.86691861  0.09970676     0.00870
C41         C  0.50998217  0.85758974  0.08247382     0.00870
C42         C  0.47732713  0.86286594  0.10377154     0.00870
C43         C  0.47940943  0.89046554  0.87552462     0.00870
C44         C  0.51343850  0.90949463  0.86919645     0.00870
C45         C  0.54592908  0.88867982  0.87680914     0.00870
C46         C  0.54437547  0.86040849  0.90314019     0.00870
C47         C  0.51150021  0.85343886  0.92085739     0.00870
C48         C  0.47920797  0.86018562  0.90046562     0.00870
C49         C  0.11267617  0.45486709  0.86903007     0.00870
C50         C  0.09508946  0.48736893  0.85780652     0.00870
C51         C  0.11667455  0.51961290  0.86196679     0.00870
C52         C  0.13849618  0.52186722  0.89472919     0.00870
C53         C  0.14394775  0.48985763  0.91550549     0.00870
C54         C  0.13820320  0.45599363  0.89782742     0.00870
C55         C  0.14545429  0.51824516  0.09709580     0.00870
C56         C  0.14870944  0.48525191  0.07646803     0.00870
C57         C  0.13924259  0.45353743  0.09563101     0.00870
C58         C  0.11220933  0.45582941  0.12345004     0.00870
C59         C  0.09347005  0.48939297  0.12988756     0.00870
C60         C  0.11508989  0.52144731  0.12212258     0.00870
C61         C  0.90534239  0.51763312  0.13419135     0.00870
C62         C  0.92845902  0.48585656  0.13691212     0.00870
C63         C  0.91078170  0.45200383  0.12578193     0.00870
C64         C  0.88356423  0.45431843  0.09829299     0.00870
C65         C  0.87664470  0.48790269  0.08158623     0.00870
C66         C  0.88026484  0.51938424  0.10386469     0.00870
C67         C  0.91698281  0.52013801  0.87017857     0.00870
C68         C  0.93323933  0.48539016  0.86405842     0.00870
C69         C  0.90909459  0.45491933  0.86865620     0.00870
C70         C  0.88823641  0.45561338  0.90138231     0.00870
C71         C  0.88467234  0.48905134  0.92046094     0.00870
C72         C  0.89128824  0.52142000  0.89998897     0.00870
N73         N  0.15716064  0.94480664  0.79588591    -0.07530
N74         N  0.12317109  0.93398775  0.79786866    -0.59650
N75         N  0.23479954  0.92409931  0.83395968    -0.07210
N76         N  0.24764936  0.89858110  0.85423506    -0.60700
N77         N  0.21553961  0.94687616  0.85316349    -0.06810
N78         N  0.21432989  0.93644117  0.88714064    -0.59630
N79         N  0.17624082  0.92177506  0.77670231    -0.06490
N80         N  0.15565398  0.89541900  0.76481386    -0.62130
C81         C  0.12273438  0.90335845  0.77781375     0.94640
C82         C  0.23515066  0.90650949  0.88724858     0.94420
N83         N  0.31176726  0.95092563  0.75843482    -0.07720
N84         N  0.34590650  0.95199050  0.76828872    -0.60230
N85         N  0.23571260  0.92133389  0.71657382    -0.05840
N86         N  0.21627474  0.90091952  0.69467047    -0.61480
N87         N  0.25332728  0.94607253  0.69849218    -0.07750
N88         N  0.24624775  0.94305571  0.66392120    -0.60500
N89         N  0.29444161  0.92557957  0.77605993    -0.05480
N90         N  0.31641385  0.90878378  0.79798694    -0.61570
Mn91       Mn  0.23534990  0.92215572  0.77550571     1.18440
C92         C  0.34850183  0.92535416  0.79282256     0.96730
C93         C  0.22365464  0.91436006  0.66180758     0.97390
N94         N  0.21416658  0.03306489  0.85212279    -0.07770
N95         N  0.21432530  0.04328585  0.88629867    -0.64080
N96         N  0.17295779  0.05344829  0.77567109    -0.06570
N97         N  0.15179139  0.07838835  0.76319076    -0.64750
N98         N  0.15472579  0.03057231  0.79561271    -0.07270
N99         N  0.12047730  0.04036758  0.79766642    -0.64340
N100        N  0.23183153  0.05666021  0.83246619    -0.06170
N101        N  0.24487366  0.08274456  0.85262034    -0.65030
Mn102      Mn  0.18434536  0.98883851  0.82538193     1.10660
C103        C  0.23419164  0.07409447  0.88599550     0.97950
C104        C  0.11921421  0.07003411  0.77661698     0.98030
N105        N  0.24790269  0.02959425  0.69710888    -0.07280
N106        N  0.23754806  0.02904159  0.66314787    -0.62650
N107        N  0.29009135  0.05857711  0.77349522    -0.06600
N108        N  0.31115870  0.07798312  0.79476011    -0.59380
N109        N  0.30879139  0.03428374  0.75584932    -0.07910
N110        N  0.34307946  0.03664155  0.76475171    -0.62220
N111        N  0.22988135  0.05422633  0.71509974    -0.06900
N112        N  0.20730913  0.07108160  0.69382639    -0.59410
Mn113      Mn  0.28163519  0.99032806  0.72624668     1.20190
Mn114      Mn  0.23134458  0.05671712  0.77393317     1.10090
Cl115      Cl  0.23291530  0.98941925  0.77537788    -0.87380
C116        C  0.21229391  0.05525132  0.66139067     0.94960
C117        C  0.34419994  0.06425365  0.78874266     0.94750
N118        N  0.05199265  0.13350343  0.79600493    -0.07530
N119        N  0.06172092  0.09915215  0.79780983    -0.59650
N120        N  0.07840559  0.21015247  0.83439383    -0.07210
N121        N  0.10494626  0.22177673  0.85463573    -0.61780
N122        N  0.05448032  0.19257348  0.85378446    -0.06810
N123        N  0.06503980  0.19122938  0.88775776    -0.59630
N124        N  0.07501100  0.15160556  0.77605382    -0.06490
N125        N  0.09988741  0.13023964  0.76322857    -0.62130
C126        C  0.09146311  0.09768989  0.77658393     0.94640
C127        C  0.09639831  0.21020162  0.88776548     0.94420
N128        N  0.05676192  0.28809877  0.75863261    -0.07720
N129        N  0.06040717  0.32257496  0.76696529    -0.60230
N130        N  0.07818184  0.20977800  0.71656211    -0.05840
N131        N  0.09695713  0.18951352  0.69393893    -0.61480
N132        N  0.05461482  0.22918130  0.69922655    -0.07750
N133        N  0.05679541  0.22256471  0.66447019    -0.60500
N134        N  0.08065838  0.26890159  0.77580923    -0.05480
N135        N  0.10103974  0.28973813  0.79624254    -0.61570
Mn136      Mn  0.07889651  0.21012222  0.77550305     1.18440
C137        C  0.08843032  0.32305498  0.78998802     0.96730
C138        C  0.08342268  0.19800239  0.66146306     0.97390
N139        N  0.96788184  0.19576593  0.85382376    -0.07770
N140        N  0.95683767  0.19467515  0.88772088    -0.64080
N141        N  0.94369311  0.15536176  0.77745038    -0.06570
N142        N  0.91721330  0.13480880  0.76574709    -0.64750
N143        N  0.96632099  0.13629123  0.79650180    -0.07270
N144        N  0.95515938  0.10231098  0.79848346    -0.64340
N145        N  0.94548034  0.21504176  0.83463837    -0.06170
N146        N  0.91957187  0.22787066  0.85495101    -0.65030
Mn147      Mn  0.01011595  0.16362736  0.82616022     1.10660
C148        C  0.92690844  0.21542545  0.88792558     0.97950
C149        C  0.92470644  0.10185109  0.77863894     0.98030
N150        N  0.97127046  0.23115563  0.69943050    -0.07280
N151        N  0.96866657  0.22384141  0.66483620    -0.62650
N152        N  0.94680505  0.27406188  0.77462175    -0.06600
N153        N  0.92451732  0.29643683  0.79065174    -0.59380
N154        N  0.97213453  0.29213904  0.75782382    -0.07910
N155        N  0.96751202  0.32741246  0.76261022    -0.62220
N156        N  0.94636513  0.21349598  0.71720047    -0.06900
N157        N  0.92634684  0.19411255  0.69502217    -0.59410
Mn158      Mn  0.01382508  0.26141489  0.72788892     1.20190
Mn159      Mn  0.94477515  0.21459780  0.77585006     1.10090
Cl160      Cl  0.01183177  0.21248471  0.77668280    -0.87380
C161        C  0.94022368  0.20091302  0.66215535     0.94960
C162        C  0.93733118  0.32977093  0.78329802     0.94750
N163        N  0.05252357  0.84416722  0.20007748    -0.07530
N164        N  0.06185070  0.87877449  0.20060758    -0.59650
N165        N  0.07608087  0.76723409  0.16082233    -0.07210
N166        N  0.10204367  0.75488880  0.14037703    -0.61780
N167        N  0.05275889  0.78536291  0.14170450    -0.06810
N168        N  0.06326902  0.78633542  0.10761339    -0.59630
N169        N  0.07517544  0.82544006  0.21933640    -0.06490
N170        N  0.09945104  0.84649713  0.23398276    -0.62130
C171        C  0.09097830  0.87955949  0.22246106     0.94640
C172        C  0.09384276  0.76651317  0.10736012     0.94420
N173        N  0.05280989  0.69011886  0.23625631    -0.07720
N174        N  0.05397010  0.65577066  0.22667961    -0.60230
N175        N  0.07796775  0.76801420  0.27821927    -0.05840
N176        N  0.09719940  0.78909343  0.29979457    -0.61480
N177        N  0.05374130  0.74980757  0.29645233    -0.07750
N178        N  0.05599203  0.75810381  0.33090930    -0.60500
N179        N  0.07731683  0.70851017  0.21860124    -0.05480
N180        N  0.09568742  0.68723007  0.19679036    -0.61570
Mn181      Mn  0.07754840  0.76721612  0.21938095     1.18440
C182        C  0.08093674  0.65434261  0.20213101     0.96730
C183        C  0.08338176  0.78242076  0.33268341     0.97390
N184        N  0.96581027  0.78455712  0.14303937    -0.07770
N185        N  0.95428448  0.78539334  0.10935853    -0.64080
N186        N  0.94499413  0.82510419  0.22077175    -0.06570
N187        N  0.91990470  0.84623031  0.23374856    -0.64750
N188        N  0.96763918  0.84364828  0.20078139    -0.07270
N189        N  0.95777333  0.87788189  0.19930284    -0.64340
N190        N  0.94296601  0.76611988  0.16294794    -0.06170
N191        N  0.91632566  0.75350028  0.14345872    -0.65030
Mn192      Mn  0.00971524  0.81543736  0.17001003     1.10660
C193        C  0.92358681  0.76527494  0.11018756     0.97950
C194        C  0.92816755  0.87899054  0.22054148     0.98030
N195        N  0.96977217  0.74872442  0.29784377    -0.07280
N196        N  0.96599088  0.75377867  0.33276025    -0.62650
N197        N  0.94414418  0.70686344  0.22072173    -0.06600
N198        N  0.92474286  0.68443697  0.20070980    -0.59380
N199        N  0.96902062  0.68926588  0.23816393    -0.07910
N200        N  0.96685855  0.65448916  0.23057697    -0.62220
N201        N  0.94498781  0.76649863  0.28058005    -0.06900
N202        N  0.92396243  0.78386058  0.30348911    -0.59410
Mn203      Mn  0.01141791  0.71833584  0.26832449     1.20190
Mn204      Mn  0.94331035  0.76612436  0.22152136     1.10090
Cl205      Cl  0.01040241  0.76684624  0.21955765    -0.87380
C206        C  0.93703264  0.77558511  0.33627190     0.94960
C207        C  0.93916358  0.65172861  0.20715921     0.94750
N208        N  0.31147918  0.74886885  0.03908471    -0.07530
N209        N  0.34585977  0.75729006  0.04213189    -0.59650
N210        N  0.23364805  0.70492735  0.06126266    -0.07210
N211        N  0.21371015  0.68174116  0.07957435    -0.61780
N212        N  0.25301374  0.68795799  0.03702579    -0.06810
N213        N  0.24678864  0.65290259  0.03848302    -0.59630
N214        N  0.29284502  0.76515188  0.06441038    -0.06490
N215        N  0.31419912  0.78474046  0.08533891    -0.62130
C216        C  0.34737197  0.77921407  0.07145064     0.94640
C217        C  0.22221471  0.64920721  0.06511993     0.94420
N218        N  0.15666400  0.78416521  0.03892033    -0.07720
N219        N  0.12258265  0.78624386  0.04943897    -0.60230
N220        N  0.23331139  0.82307417  0.06376205    -0.05840
N221        N  0.24517069  0.84336374  0.09020865    -0.61480
N222        N  0.21507059  0.84244910  0.04076507    -0.07750
N223        N  0.21347708  0.87648515  0.05193222    -0.60500
N224        N  0.17507533  0.76453003  0.06155323    -0.05480
N225        N  0.15408458  0.75235438  0.08713327    -0.61570
Mn226      Mn  0.23375113  0.76419635  0.06364065     1.18440
C227        C  0.12148144  0.76565520  0.07935147     0.96730
C228        C  0.23300890  0.87649913  0.08259730     0.97390
N229        N  0.25394036  0.68909982  0.95424903    -0.07770
N230        N  0.24521894  0.65459115  0.95341647    -0.64080
N231        N  0.29601868  0.76532157  0.92905895    -0.06570
N232        N  0.31919314  0.78052590  0.90651057    -0.64750
N233        N  0.31318308  0.74769664  0.95406121    -0.07270
N234        N  0.34816616  0.75048990  0.94903375    -0.64340
N235        N  0.23567719  0.70680104  0.93003870    -0.06170
N236        N  0.21388688  0.68471765  0.91237879    -0.65030
Mn237      Mn  0.28414825  0.71767733  0.99620465     1.10660
C238        C  0.22051207  0.65226814  0.92705926     0.97950
C239        C  0.35187418  0.77064635  0.91904828     0.98030
N240        N  0.21663401  0.84345792  0.95473869    -0.07280
N241        N  0.21494945  0.87768122  0.94477067    -0.62650
N242        N  0.17750289  0.76636368  0.93007296    -0.06600
N243        N  0.15679173  0.75311569  0.90466303    -0.59380
N244        N  0.15830800  0.78479413  0.95353198    -0.07910
N245        N  0.12399789  0.78494460  0.94393851    -0.62220
N246        N  0.23610311  0.82483241  0.93158629    -0.06900
N247        N  0.24858277  0.84584160  0.90624892    -0.59410
Mn248      Mn  0.18570339  0.81481224  0.99693720     1.20190
Mn249      Mn  0.23648250  0.76592305  0.92919352     1.10090
Cl250      Cl  0.23512958  0.76583792  0.99646027    -0.87380
C251        C  0.23560553  0.87865095  0.91470473     0.94960
C252        C  0.12358979  0.76450390  0.91358949     0.94750
N253        N  0.05948149  0.23293968  0.29921779    -0.07530
N254        N  0.06482630  0.22632868  0.33362405    -0.59650
N255        N  0.08128507  0.27260338  0.22091313    -0.07210
N256        N  0.10000406  0.29269524  0.19850985    -0.61780
N257        N  0.05819821  0.29194329  0.23953183    -0.06810
N258        N  0.06109211  0.32615752  0.23006665    -0.59630
N259        N  0.08305984  0.21539553  0.27957359    -0.06490
N260        N  0.10509794  0.19694128  0.29991855    -0.62130
C261        C  0.09372929  0.20414775  0.33363526     0.94640
C262        C  0.08740231  0.32601788  0.20461247     0.94420
N263        N  0.05429702  0.19572983  0.14412532    -0.07720
N264        N  0.06522041  0.19345617  0.11020370    -0.60230
N265        N  0.07812428  0.15608790  0.22029353    -0.05840
N266        N  0.10387979  0.13548532  0.23213413    -0.61480
N267        N  0.05454607  0.13714728  0.20160431    -0.07750
N268        N  0.06459135  0.10281646  0.20000821    -0.60500
N269        N  0.07781613  0.21431746  0.16312667    -0.05480
N270        N  0.10416546  0.22593749  0.14283954    -0.61570
Mn271      Mn  0.08048427  0.21456183  0.22118866     1.18440
C272        C  0.09620225  0.21313518  0.11001999     0.96730
C273        C  0.09523162  0.10240051  0.21983872     0.97390
N274        N  0.97319528  0.29379808  0.24552764    -0.07770
N275        N  0.97025804  0.32898282  0.24098450    -0.64080
N276        N  0.94855245  0.21610838  0.28430472    -0.06570
N277        N  0.92818615  0.19674649  0.30602294    -0.64750
N278        N  0.97420787  0.23289530  0.30227388    -0.07270
N279        N  0.97181435  0.22494797  0.33677564    -0.64340
N280        N  0.94779392  0.27656036  0.22774679    -0.06170
N281        N  0.92722448  0.29971654  0.21072321    -0.65030
Mn282      Mn  0.01634978  0.26404953  0.27292001     1.10660
C283        C  0.94121824  0.33248921  0.21944506     0.97950
C284        C  0.94257880  0.20285583  0.33870021     0.98030
N285        N  0.96831076  0.13864603  0.20333032    -0.07280
N286        N  0.95743431  0.10457758  0.20077445    -0.62650
N287        N  0.94507279  0.21685464  0.16653971    -0.06600
N288        N  0.91837301  0.22888826  0.14705270    -0.59380
N289        N  0.96739952  0.19768646  0.14659605    -0.07910
N290        N  0.95561091  0.19607315  0.11300165    -0.62220
N291        N  0.94561111  0.15752182  0.22303863    -0.06900
N292        N  0.91941549  0.13666277  0.23468223    -0.59410
Mn293      Mn  0.01106419  0.16634738  0.17284942     1.20190
Mn294      Mn  0.94596721  0.21695729  0.22548133     1.10090
Cl295      Cl  0.01333130  0.21544303  0.22313513    -0.87380
C296        C  0.92712474  0.10377673  0.22101166     0.94960
C297        C  0.92522159  0.21621344  0.11374178     0.94750
N298        N  0.25088515  0.94394583  0.30008385    -0.07530
N299        N  0.24470930  0.94095915  0.33491067    -0.59650
N300        N  0.28962719  0.91794968  0.22217711    -0.07210
N301        N  0.31035927  0.89700918  0.20220603    -0.61780
N302        N  0.30884290  0.94206778  0.23981812    -0.06810
N303        N  0.34330456  0.93792055  0.23230307    -0.59630
N304        N  0.23221729  0.91965159  0.28213056    -0.06490
N305        N  0.21322773  0.89939701  0.30425734    -0.62130
C306        C  0.22146626  0.91273380  0.33715110     0.94640
C307        C  0.34380234  0.90935818  0.20930221     0.94420
N308        N  0.21250503  0.94430828  0.14564993    -0.07720
N309        N  0.21217963  0.93433620  0.11136371    -0.60230
N310        N  0.17265181  0.92341643  0.22340259    -0.05840
N311        N  0.15111882  0.89875264  0.23652846    -0.61480
N312        N  0.15450571  0.94643468  0.20395423    -0.07750
N313        N  0.12007537  0.93704307  0.20282112    -0.60500
N314        N  0.23037934  0.92076284  0.16470980    -0.05480
N315        N  0.24322155  0.89511255  0.14404291    -0.61570
Mn316      Mn  0.23105102  0.91959415  0.22316851     1.18440
C317        C  0.23205946  0.90379134  0.11097717     0.96730
C318        C  0.11852554  0.90745837  0.22384912     0.97390
N319        N  0.31080379  0.02652529  0.23943540    -0.07770
N320        N  0.34511113  0.02721416  0.22997199    -0.64080
N321        N  0.23428659  0.05298683  0.28221009    -0.06570
N322        N  0.21368561  0.07192968  0.30421733    -0.64750
N323        N  0.25178327  0.02809983  0.29988713    -0.07270
N324        N  0.24321367  0.02954909  0.33434702    -0.64340
N325        N  0.29308118  0.05172672  0.22249577    -0.06170
N326        N  0.31483706  0.07013712  0.20136153    -0.65030
Mn327      Mn  0.28184097  0.98542118  0.27094747     1.10660
C328        C  0.34715326  0.05467861  0.20632049     0.97950
C329        C  0.21988503  0.05734507  0.33666199     0.98030
N330        N  0.15607046  0.03189370  0.20325192    -0.07280
N331        N  0.12240935  0.04323476  0.20075698    -0.62650
N332        N  0.23357233  0.05360622  0.16435832    -0.06600
N333        N  0.24610446  0.07946456  0.14387692    -0.59380
N334        N  0.21432679  0.03051781  0.14530082    -0.07910
N335        N  0.21286952  0.04089607  0.11133148    -0.62220
N336        N  0.17532538  0.05472705  0.22259522    -0.06900
N337        N  0.15525115  0.08145041  0.23408695    -0.59410
Mn338      Mn  0.18340198  0.98814422  0.17346026     1.20190
Mn339      Mn  0.23430526  0.05425031  0.22327746     1.10090
Cl340      Cl  0.23261989  0.98687929  0.22271700    -0.87380
C341        C  0.12236031  0.07399452  0.22071078     0.94960
C342        C  0.23346245  0.07125355  0.11092813     0.94750
N343        N  0.21681635  0.13315712  0.04174275    -0.07530
N344        N  0.21401791  0.09919427  0.05260601    -0.59650
N345        N  0.17882638  0.20987097  0.06664817    -0.07210
N346        N  0.15824483  0.22267285  0.09230576    -0.61780
N347        N  0.15939547  0.19175150  0.04300834    -0.06810
N348        N  0.12504351  0.19141058  0.05272570    -0.59630
N349        N  0.23670514  0.15189554  0.06445671    -0.06490
N350        N  0.24834618  0.13133767  0.09032762    -0.62130
C351        C  0.23446127  0.09858747  0.08275907     0.94640
C352        C  0.12490348  0.21144984  0.08331132     0.94420
N353        N  0.25520600  0.28897141  0.04471761    -0.07720
N354        N  0.24806986  0.32360846  0.04913847    -0.60230
N355        N  0.29696274  0.21030487  0.06394756    -0.05840
N356        N  0.31985841  0.18960077  0.08109859    -0.61480
N357        N  0.31403814  0.23018154  0.04033500    -0.07750
N358        N  0.34881842  0.22364640  0.04122217    -0.60500
N359        N  0.23843418  0.26980431  0.06914476    -0.05480
N360        N  0.21972749  0.29093755  0.09081183    -0.61570
Mn361      Mn  0.23787733  0.21053028  0.06699034     1.18440
C362        C  0.22622003  0.32448983  0.07830381     0.96730
C363        C  0.35230128  0.19824746  0.06676584     0.97390
N364        N  0.15811249  0.19259855  0.95699837    -0.07770
N365        N  0.12421153  0.19021832  0.94599451    -0.64080
N366        N  0.23539482  0.15483766  0.93298710    -0.06570
N367        N  0.24763844  0.13468674  0.90663659    -0.64750
N368        N  0.21675039  0.13521400  0.95582108    -0.07270
N369        N  0.21538796  0.10115962  0.94476262    -0.64340
N370        N  0.17702742  0.21233659  0.93448630    -0.06170
N371        N  0.15664738  0.22425317  0.90857507    -0.65030
Mn372      Mn  0.18668789  0.16212777  0.99939030     1.10660
C373        C  0.12381991  0.21073162  0.91595137     0.97950
C374        C  0.23535807  0.10138770  0.91426794     0.98030
N375        N  0.31244666  0.23233538  0.95785331    -0.07280
N376        N  0.34676006  0.22361644  0.95652627    -0.62650
N377        N  0.23510444  0.27275079  0.93584129    -0.06600
N378        N  0.21455161  0.29459318  0.91733031    -0.59380
N379        N  0.25271720  0.29070716  0.96085663    -0.07910
N380        N  0.24442055  0.32526328  0.96001372    -0.62220
N381        N  0.29435982  0.21432507  0.93326820    -0.06900
N382        N  0.31594609  0.19310616  0.91458468    -0.59410
Mn383      Mn  0.28455154  0.26187301  0.00088939     1.20190
Mn384      Mn  0.23562137  0.21374712  0.93322846     1.10090
Cl385      Cl  0.23600180  0.21209730  0.00015715    -0.87380
C386        C  0.34858143  0.19963211  0.92907119     0.94960
C387        C  0.22099259  0.32720426  0.93243090     0.94750
N388        N  0.77184965  0.02853421  0.29786601    -0.07530
N389        N  0.78113853  0.02909017  0.33198659    -0.59650
N390        N  0.72919311  0.05230631  0.22160375    -0.07210
N391        N  0.70680258  0.06919785  0.20037037    -0.61780
N392        N  0.71193894  0.02757490  0.23983795    -0.06810
N393        N  0.67757758  0.02719751  0.23124078    -0.59630
N394        N  0.78921496  0.05370433  0.28012248    -0.06490
N395        N  0.81075765  0.07205788  0.30178058    -0.62130
C396        C  0.80509682  0.05654464  0.33396209     0.94640
C397        C  0.67450850  0.05336183  0.20648680     0.94420
N398        N  0.80737806  0.03297995  0.14293923    -0.07720
N399        N  0.80918475  0.04477530  0.10942049    -0.60230
N400        N  0.84645021  0.05606154  0.22002473    -0.05840
N401        N  0.86640834  0.08248563  0.23279144    -0.61480
N402        N  0.86586595  0.03357843  0.20057517    -0.07750
N403        N  0.89973470  0.04512778  0.19926213    -0.60500
N404        N  0.78818307  0.05536933  0.16274739    -0.05480
N405        N  0.77608023  0.08196610  0.14331493    -0.61570
Mn406      Mn  0.78794984  0.05539182  0.22134727     1.18440
C407        C  0.78891412  0.07513789  0.11018519     0.96730
C408        C  0.89950632  0.07544222  0.22008474     0.97390
N409        N  0.71236534  0.94600878  0.23852569    -0.07770
N410        N  0.67827580  0.94700067  0.22913160    -0.64080
N411        N  0.78997144  0.92146698  0.27819102    -0.06570
N412        N  0.81111241  0.90289590  0.29954442    -0.64750
N413        N  0.77211785  0.94578603  0.29662314    -0.07270
N414        N  0.78054796  0.94441880  0.33088457    -0.64340
N415        N  0.72977739  0.92200269  0.21920688    -0.06170
N416        N  0.70781051  0.90599625  0.19614628    -0.65030
Mn417      Mn  0.74110859  0.98694779  0.26945722     1.10660
C418        C  0.67586443  0.92185801  0.20293826     0.97950
C419        C  0.80468500  0.91743468  0.33234359     0.98030
N420        N  0.86622189  0.94652736  0.19966242    -0.07280
N421        N  0.90043647  0.93657316  0.19910073    -0.62650
N422        N  0.78896678  0.92255908  0.16093087    -0.06600
N423        N  0.77618852  0.89635650  0.14077710    -0.59380
N424        N  0.80793812  0.94549432  0.14164289    -0.07910
N425        N  0.80902137  0.93430889  0.10763535    -0.62220
N426        N  0.84703203  0.92337453  0.21844986    -0.06900
N427        N  0.86744225  0.89820673  0.23169260    -0.59410
Mn428      Mn  0.83813519  0.98961133  0.16987665     1.20190
Mn429      Mn  0.78873686  0.92127096  0.21931469     1.10090
Cl430      Cl  0.78938058  0.98834279  0.21964868    -0.87380
C431        C  0.90055195  0.90661011  0.21983382     0.94960
C432        C  0.78843562  0.90380449  0.10770087     0.94750
N433        N  0.70770033  0.23081408  0.03886368    -0.07530
N434        N  0.67361069  0.22093663  0.03917207    -0.59650
N435        N  0.78131647  0.27657178  0.06556918    -0.07210
N436        N  0.79806074  0.30081507  0.08582934    -0.61780
N437        N  0.76252681  0.29276022  0.04073465    -0.06810
N438        N  0.76610174  0.32810588  0.04349623    -0.59630
N439        N  0.72574901  0.21390372  0.06380171    -0.06490
N440        N  0.70427259  0.19200376  0.08166206    -0.62130
C441        C  0.67196595  0.19700144  0.06612274     0.94640
C442        C  0.78776475  0.33293015  0.07215882     0.94420
N443        N  0.86343275  0.19918383  0.04363921    -0.07720
N444        N  0.89714595  0.19716830  0.05501349    -0.60230
N445        N  0.78753114  0.15760936  0.06611530    -0.05840
N446        N  0.77569174  0.13657739  0.09183450    -0.61480
N447        N  0.80685151  0.13898337  0.04287506    -0.07750
N448        N  0.80900517  0.10482665  0.05295959    -0.60500
N449        N  0.84397578  0.21803291  0.06670874    -0.05480
N450        N  0.86404049  0.22943149  0.09359568    -0.61570
Mn451      Mn  0.78467804  0.21685986  0.06657419     1.18440
C452        C  0.89713042  0.21670049  0.08598898     0.96730
C453        C  0.78886154  0.10378936  0.08334244     0.97390
N454        N  0.76659360  0.29158539  0.95796474    -0.07770
N455        N  0.77617354  0.32593630  0.95912384    -0.64080
N456        N  0.72712589  0.21208083  0.93220667    -0.06570
N457        N  0.70590165  0.19005270  0.91363198    -0.64750
N458        N  0.70839963  0.23011272  0.95620585    -0.07270
N459        N  0.67404949  0.22093162  0.95440774    -0.64340
N460        N  0.78565101  0.27407739  0.93377070    -0.06170
N461        N  0.80853378  0.29626290  0.91790727    -0.65030
Mn462      Mn  0.73528632  0.26228000  0.99822787     1.10660
C463        C  0.80214933  0.32853459  0.93382728     0.97950
C464        C  0.67278434  0.19622841  0.92750949     0.98030
N465        N  0.80742967  0.13761447  0.95680167    -0.07280
N466        N  0.80891717  0.10311635  0.94690837    -0.62650
N467        N  0.84521348  0.21573815  0.93355659    -0.06600
N468        N  0.86567481  0.22744808  0.90730136    -0.59380
N469        N  0.86440500  0.19778873  0.95695343    -0.07910
N470        N  0.89848896  0.19642043  0.94632220    -0.62220
N471        N  0.78835345  0.15584825  0.93353393    -0.06900
N472        N  0.77598339  0.13443150  0.90817382    -0.59410
Mn473      Mn  0.83653565  0.16753114  0.00006166     1.20190
Mn474      Mn  0.78638822  0.21465138  0.93224754     1.10090
Cl475      Cl  0.78596874  0.21533649  0.99936813    -0.87380
C476        C  0.78856519  0.10168611  0.91670731     0.94960
C477        C  0.89876760  0.21568667  0.91552469     0.94750
N478        N  0.05368811  0.74886838  0.69774996    -0.07530
N479        N  0.05788688  0.75699351  0.66349680    -0.59650
N480        N  0.07523637  0.70500606  0.77332048    -0.07210
N481        N  0.09405904  0.68232806  0.79255356    -0.61780
N482        N  0.05025020  0.68783516  0.75507359    -0.06810
N483        N  0.05121434  0.65310044  0.76228309    -0.59630
N484        N  0.07827883  0.76542202  0.71712296    -0.06490
N485        N  0.09971765  0.78505500  0.69668416    -0.62130
C486        C  0.08699888  0.77925124  0.66322886     0.94640
C487        C  0.07896541  0.64982755  0.78548952     0.94420
N488        N  0.05294796  0.78116675  0.85379846    -0.07720
N489        N  0.06434626  0.78299974  0.88748543    -0.60230
N490        N  0.07681325  0.82195895  0.77832901    -0.05840
N491        N  0.10264682  0.84246185  0.76574096    -0.61480
N492        N  0.05398951  0.84096005  0.79771800    -0.07750
N493        N  0.06472072  0.87518507  0.79920775    -0.60500
N494        N  0.07569354  0.76238857  0.83410641    -0.05480
N495        N  0.10215566  0.75051027  0.85380322    -0.61570
Mn496      Mn  0.07725033  0.76355328  0.77566147     1.18440
C497        C  0.09485929  0.76310911  0.88695181     0.96730
C498        C  0.09489733  0.87547896  0.77849731     0.97390
N499        N  0.96703023  0.68777275  0.75210717    -0.07770
N500        N  0.96366088  0.65259548  0.75677160    -0.64080
N501        N  0.94453185  0.76756240  0.71636402    -0.06570
N502        N  0.92569350  0.78958328  0.69631784    -0.64750
N503        N  0.96939243  0.75115076  0.69722891    -0.07270
N504        N  0.96809972  0.76189067  0.66353485    -0.64340
N505        N  0.94244087  0.70492305  0.77073327    -0.06170
N506        N  0.92170505  0.68174210  0.78796678    -0.65030
Mn507      Mn  0.01009734  0.71781643  0.72418706     1.10660
C508        C  0.93477463  0.64887952  0.77885173     0.97950
C509        C  0.94051074  0.78557927  0.66351148     0.98030
N510        N  0.96766200  0.84144248  0.79798822    -0.07280
N511        N  0.95779594  0.87578427  0.79991017    -0.62650
N512        N  0.94350381  0.76214746  0.83331084    -0.06600
N513        N  0.91722827  0.74906976  0.85298919    -0.59380
N514        N  0.96633954  0.78073894  0.85330183    -0.07910
N515        N  0.95524823  0.78106893  0.88721766    -0.62220
N516        N  0.94468006  0.82283731  0.77830497    -0.06900
N517        N  0.91963382  0.84387499  0.76575810    -0.59410
Mn518      Mn  0.01020324  0.81219771  0.82691944     1.20190
Mn519      Mn  0.94293506  0.76411397  0.77472795     1.10090
Cl520      Cl  0.01009096  0.76444542  0.77546539    -0.87380
C521        C  0.92797919  0.87672157  0.77901222     0.94960
C522        C  0.92479419  0.76061003  0.88647182     0.94750
N523        N  0.86340566  0.03165368  0.79769712    -0.07530
N524        N  0.89722252  0.04326457  0.79915928    -0.59650
N525        N  0.78598818  0.05294872  0.83673645    -0.07210
N526        N  0.77433605  0.07956475  0.85697303    -0.61780
N527        N  0.80521460  0.03038473  0.85579298    -0.06810
N528        N  0.80766441  0.04219944  0.88947421    -0.59630
N529        N  0.84399254  0.05402372  0.77867303    -0.06490
N530        N  0.86394724  0.08060302  0.76650449    -0.62130
C531        C  0.89701454  0.07361129  0.77901487     0.94640
C532        C  0.78762190  0.07267791  0.88972178     0.94420
N533        N  0.70827357  0.02586021  0.76185490    -0.07720
N534        N  0.67376006  0.02747652  0.77036931    -0.60230
N535        N  0.78616300  0.05112171  0.71869092    -0.05840
N536        N  0.80861927  0.06775757  0.69654739    -0.61480
N537        N  0.76767963  0.02618508  0.70135435    -0.07750
N538        N  0.77732133  0.02530875  0.66718119    -0.60500
N539        N  0.72629803  0.05150465  0.77863316    -0.05480
N540        N  0.70453183  0.07118180  0.79878833    -0.61570
Mn541      Mn  0.78537661  0.05335312  0.77793485     1.18440
C542        C  0.67182543  0.05622394  0.79301100     0.96730
C543        C  0.80266927  0.05150889  0.66437524     0.97390
N544        N  0.80673600  0.94252423  0.85481116    -0.07770
N545        N  0.80763135  0.93098161  0.88846721    -0.64080
N546        N  0.84719437  0.92230567  0.77713156    -0.06570
N547        N  0.86816475  0.89678524  0.76477670    -0.64750
N548        N  0.86553030  0.94529614  0.79716049    -0.07270
N549        N  0.89957456  0.93498462  0.79941742    -0.64340
N550        N  0.78889771  0.91913846  0.83474634    -0.06170
N551        N  0.77666230  0.89226886  0.85393370    -0.65030
Mn552      Mn  0.83619883  0.98749155  0.82763015     1.10660
C553        C  0.78807117  0.89979655  0.88727238     0.97950
C554        C  0.90067959  0.90486639  0.77844332     0.98030
N555        N  0.76890433  0.94402988  0.70110212    -0.07280
N556        N  0.77738827  0.94412562  0.66669553    -0.62650
N557        N  0.72997824  0.91659486  0.77754388    -0.06600
N558        N  0.70984492  0.89554050  0.79785302    -0.59380
N559        N  0.71031552  0.94087316  0.76148631    -0.07910
N560        N  0.67612274  0.93676160  0.77066562    -0.62220
N561        N  0.78870318  0.92067668  0.71826291    -0.06900
N562        N  0.81105693  0.90426256  0.69603500    -0.59410
Mn563      Mn  0.73721256  0.98429653  0.73055610     1.20190
Mn564      Mn  0.78869022  0.91894449  0.77663578     1.10090
Cl565      Cl  0.78680567  0.98606609  0.77845613    -0.87380
C566        C  0.80344037  0.91907094  0.66405774     0.94960
C567        C  0.67628127  0.90801656  0.79298431     0.94750
N568        N  0.80430306  0.83917013  0.03970813    -0.07530
N569        N  0.80733846  0.87351522  0.04980733    -0.59650
N570        N  0.84181054  0.76258230  0.06492042    -0.07210
N571        N  0.86212095  0.75207332  0.09155256    -0.61780
N572        N  0.86119956  0.78027749  0.04113392    -0.06810
N573        N  0.89518511  0.78258814  0.05168416    -0.59630
N574        N  0.78448096  0.82123662  0.06292280    -0.06490
N575        N  0.77313766  0.84286220  0.08855922    -0.62130
C576        C  0.78712671  0.87534959  0.08014428     0.94640
C577        C  0.89527938  0.76423622  0.08297229     0.94420
N578        N  0.76432663  0.68393464  0.04189450    -0.07720
N579        N  0.77173895  0.64928871  0.04558702    -0.60230
N580        N  0.72369790  0.76258887  0.06376215    -0.05840
N581        N  0.70220681  0.78382163  0.08250922    -0.61480
N582        N  0.70541720  0.74419243  0.03950519    -0.07750
N583        N  0.67094008  0.75285395  0.04122324    -0.60500
N584        N  0.78165377  0.70311467  0.06621784    -0.05480
N585        N  0.80085622  0.68208155  0.08699917    -0.61570
Mn586      Mn  0.78269910  0.76220796  0.06521457     1.18440
C587        C  0.79434920  0.64851891  0.07408252     0.96730
C588        C  0.66933457  0.77731018  0.06849681     0.97390
N589        N  0.86188249  0.77773925  0.95513361    -0.07770
N590        N  0.89596189  0.77979652  0.94461501    -0.64080
N591        N  0.78571048  0.81728351  0.93108673    -0.06570
N592        N  0.77424770  0.83819701  0.90533013    -0.64750
N593        N  0.80461471  0.83630964  0.95446203    -0.07270
N594        N  0.80674666  0.87052701  0.94459114    -0.64340
N595        N  0.84304847  0.75835972  0.93199875    -0.06170
N596        N  0.86384844  0.74639079  0.90600497    -0.65030
Mn597      Mn  0.83388930  0.80910196  0.99752715     1.10660
C598        C  0.89672913  0.75952371  0.91414667     0.97950
C599        C  0.78714959  0.87125491  0.91409901     0.98030
N600        N  0.70629212  0.74020149  0.95517115    -0.07280
N601        N  0.67158720  0.74689856  0.95172885    -0.62650
N602        N  0.78331626  0.69821329  0.93234160    -0.06600
N603        N  0.80304083  0.67555945  0.91317582    -0.59380
N604        N  0.76530701  0.68083734  0.95734160    -0.07910
N605        N  0.77264437  0.64596772  0.95570062    -0.62220
N606        N  0.72478322  0.75740975  0.93044360    -0.06900
N607        N  0.70306827  0.77595426  0.90966101    -0.59410
Mn608      Mn  0.73420974  0.71112879  0.99857277     1.20190
Mn609      Mn  0.78406589  0.75774396  0.93057801     1.10090
Cl610      Cl  0.78374429  0.76002615  0.99793848    -0.87380
C611        C  0.66982602  0.76868333  0.92276657     0.94960
C612        C  0.79572335  0.64294134  0.92755824     0.94750
C613        C  0.91589363  0.58891247  0.85655135    -0.03260
C614        C  0.92599799  0.55337305  0.84581951     0.06420
C615        C  0.94000248  0.55087810  0.80963621    -0.03370
C616        C  0.93913377  0.58103933  0.78619253    -0.03380
C617        C  0.92517154  0.61445249  0.79780327     0.06550
C618        C  0.90838345  0.61562662  0.83155883    -0.03570
Br619      Br  0.87812811  0.65499634  0.84729229    -0.02120
Br620      Br  0.93626605  0.61145359  0.89820609    -0.02190
Br621      Br  0.95337019  0.57539992  0.73631876    -0.02150
Br622      Br  0.96767192  0.51109871  0.79108445    -0.02140
C623        C  0.83956841  0.56193518  0.88142911    -0.03260
C624        C  0.86678691  0.55310562  0.90648630     0.06420
C625        C  0.86964795  0.57417558  0.93811227    -0.03370
C626        C  0.84573663  0.60263155  0.94517076    -0.03380
C627        C  0.81847795  0.61085967  0.92067457     0.06550
C628        C  0.81560678  0.59067319  0.88860621    -0.03570
Br629      Br  0.77878149  0.60273187  0.85456882    -0.02120
Br630      Br  0.83578176  0.53621494  0.83632615    -0.02190
Br631      Br  0.85191550  0.63237363  0.98741408    -0.02150
Br632      Br  0.90939586  0.56783317  0.96951692    -0.02140
C633        C  0.88407452  0.39356206  0.84413409    -0.03260
C634        C  0.90254443  0.42629647  0.83864016     0.06420
C635        C  0.91438517  0.42992397  0.80284398    -0.03370
C636        C  0.92604738  0.39848986  0.78366632    -0.03380
C637        C  0.92176784  0.36373149  0.79945223     0.06550
C638        C  0.89905986  0.36185966  0.83021685    -0.03570
Br639      Br  0.87945450  0.31756775  0.84907161    -0.02120
Br640      Br  0.83413146  0.39419586  0.83099647    -0.02190
Br641      Br  0.94360630  0.40332937  0.73536057    -0.02150
Br642      Br  0.89256548  0.46804282  0.77626912    -0.02140
C643        C  0.82838024  0.42444099  0.91054589    -0.03260
C644        C  0.86634063  0.42376904  0.91372329     0.06420
C645        C  0.88283365  0.39139347  0.92489295    -0.03370
C646        C  0.86206095  0.36003755  0.93066830    -0.03380
C647        C  0.82422701  0.36136275  0.92823836     0.06550
C648        C  0.80744664  0.39403754  0.91963464    -0.03570
Br649      Br  0.75568366  0.39592739  0.91557436    -0.02120
Br650      Br  0.80529546  0.46244906  0.88435672    -0.02190
Br651      Br  0.88622189  0.31499704  0.94079056    -0.02150
Br652      Br  0.93406905  0.38763420  0.92890602    -0.02140
C653        C  0.88157448  0.57318155  0.17106995    -0.03260
C654        C  0.90913588  0.54868059  0.16154903     0.06420
C655        C  0.94109294  0.55425284  0.18061487    -0.03370
C656        C  0.95307192  0.58961837  0.18444426    -0.03380
C657        C  0.92763015  0.61715043  0.18993034     0.06550
C658        C  0.89088447  0.60818207  0.18416573    -0.03570
Br659      Br  0.85326008  0.64160242  0.19650416    -0.02120
Br660      Br  0.83605349  0.55366144  0.18542546    -0.02190
Br661      Br  0.00390294  0.59683743  0.18623256    -0.02150
Br662      Br  0.94046170  0.53419693  0.22764153    -0.02140
C663        C  0.79824905  0.58369144  0.09301291    -0.03260
C664        C  0.81540114  0.61634866  0.08443117     0.06420
C665        C  0.85307063  0.61730868  0.08244212    -0.03370
C666        C  0.87250845  0.58501593  0.08327316    -0.03380
C667        C  0.85703245  0.55246745  0.09571591     0.06550
C668        C  0.81880517  0.55257352  0.10049154    -0.03570
Br669      Br  0.79270524  0.51220712  0.11911995    -0.02120
Br670      Br  0.74639221  0.58272324  0.09722514    -0.02190
Br671      Br  0.91330291  0.58461717  0.05320813    -0.02150
Br672      Br  0.87893268  0.66225192  0.07542958    -0.02140
C673        C  0.89038788  0.39353859  0.15995796    -0.03260
C674        C  0.91755952  0.41570887  0.14432114     0.06420
C675        C  0.95130199  0.39978959  0.14450976    -0.03370
C676        C  0.96005257  0.37766373  0.17381090    -0.03380
C677        C  0.93358079  0.36518790  0.19793839     0.06550
C678        C  0.89812612  0.37672914  0.19253630    -0.03570
Br679      Br  0.85904082  0.35855464  0.22133017    -0.02120
Br680      Br  0.87764465  0.35131537  0.13165995    -0.02190
Br681      Br  0.00843342  0.37352957  0.18666284    -0.02150
Br682      Br  0.96449910  0.38060731  0.09874945    -0.02140
C683        C  0.80262476  0.39018459  0.10570226    -0.03260
C684        C  0.80916748  0.36621700  0.07710054     0.06420
C685        C  0.83941095  0.37121742  0.05505278    -0.03370
C686        C  0.86317847  0.40028915  0.06088445    -0.03380
C687        C  0.85770063  0.42413408  0.09028926     0.06550
C688        C  0.82730926  0.41843953  0.11309946    -0.03570
Br689      Br  0.82355724  0.44288842  0.15908449    -0.02120
Br690      Br  0.76210785  0.38145109  0.13694870    -0.02190
Br691      Br  0.90565648  0.40241721  0.03155243    -0.02150
Br692      Br  0.85142061  0.33403046  0.02088569    -0.02140
C693        C  0.91104053  0.48241887  0.98340854    -0.03260
C694        C  0.88042159  0.48896709  0.96175570     0.06420
C695        C  0.84762355  0.49514096  0.98064718    -0.03370
C696        C  0.84546691  0.49117334  0.01866803    -0.03380
C697        C  0.87683706  0.48982511  0.04023681     0.06550
C698        C  0.90988078  0.48641269  0.02138212    -0.03570
Br699      Br  0.95432245  0.48236683  0.04728887    -0.02120
Br700      Br  0.95564934  0.46734606  0.96204756    -0.02190
Br701      Br  0.79917341  0.48027389  0.03847901    -0.02150
Br702      Br  0.80511756  0.51140546  0.95685301    -0.02140
C703        C  0.10300693  0.59073513  0.12390913    -0.03260
C704        C  0.10665446  0.55686452  0.14181142     0.06420
C705        C  0.10382523  0.55729504  0.18001760    -0.03370
C706        C  0.09622283  0.58911499  0.19935456    -0.03380
C707        C  0.09064989  0.62149970  0.18129449     0.06550
C708        C  0.09374201  0.62220427  0.14356846    -0.03570
Br709      Br  0.08264236  0.66599324  0.11818183    -0.02120
Br710      Br  0.11199869  0.59703556  0.07291437    -0.02190
Br711      Br  0.09541295  0.58884730  0.25146998    -0.02150
Br712      Br  0.11683734  0.51675285  0.20827413    -0.02140
C713        C  0.18421224  0.57190839  0.12204735    -0.03260
C714        C  0.17538099  0.54683196  0.09449982     0.06420
C715        C  0.19667946  0.55035131  0.06364732    -0.03370
C716        C  0.20285014  0.58504647  0.05105359    -0.03380
C717        C  0.20617810  0.61393136  0.07614442     0.06550
C718        C  0.19816306  0.60635730  0.11270883    -0.03570
Br719      Br  0.20723174  0.64135804  0.15026204    -0.02120
Br720      Br  0.19087593  0.55502600  0.17002459    -0.02190
Br721      Br  0.21625218  0.58768291  0.00159269    -0.02150
Br722      Br  0.24414081  0.53102227  0.06901493    -0.02140
C723        C  0.08040203  0.39747882  0.13447267    -0.03260
C724        C  0.10584952  0.42308979  0.14581501     0.06420
C725        C  0.12830745  0.41449755  0.17532022    -0.03370
C726        C  0.12217777  0.38265964  0.19482427    -0.03380
C727        C  0.09725163  0.35713589  0.18223911     0.06550
C728        C  0.07995835  0.36274251  0.14925278    -0.03570
Br729      Br  0.05347527  0.32410117  0.12592427    -0.02120
Br730      Br  0.04329603  0.41214690  0.10263022    -0.02190
Br731      Br  0.14869922  0.37287236  0.23806395    -0.02150
Br732      Br  0.16615600  0.44582560  0.19130594    -0.02140
C733        C  0.19840910  0.41991501  0.10377915    -0.03260
C734        C  0.16215960  0.42005607  0.09159240     0.06420
C735        C  0.14767706  0.38705660  0.07852945    -0.03370
C736        C  0.16705255  0.35489287  0.08076937    -0.03380
C737        C  0.20403803  0.35612386  0.08779284     0.06550
C738        C  0.21983003  0.38880970  0.09915180    -0.03570
Br739      Br  0.27080384  0.39066248  0.10846500    -0.02120
Br740      Br  0.22061994  0.46250616  0.12411710    -0.02190
Br741      Br  0.14243776  0.30930799  0.07301178    -0.02150
Br742      Br  0.10489360  0.38471662  0.05096046    -0.02140
C743        C  0.99142913  0.51389315  0.11978697    -0.03260
C744        C  0.97093803  0.48982922  0.14142891     0.06420
C745        C  0.99245178  0.47220475  0.16752022    -0.03370
C746        C  0.03166025  0.47341935  0.16649541    -0.03380
C747        C  0.05152775  0.49140099  0.13815393     0.06550
C748        C  0.02925977  0.51203821  0.11540321    -0.03570
Br749      Br  0.04810247  0.53924014  0.07579538    -0.02120
Br750      Br  0.97178676  0.55729709  0.10269821    -0.02190
Br751      Br  0.05581324  0.45339583  0.20712039    -0.02150
Br752      Br  0.96853363  0.45402068  0.20979555    -0.02140
C753        C  0.11563923  0.61489671  0.83050659    -0.03260
C754        C  0.09134732  0.61522190  0.80129397     0.06420
C755        C  0.08197043  0.58157796  0.78547014    -0.03370
C756        C  0.09279180  0.54911566  0.80199069    -0.03380
C757        C  0.11476738  0.54997243  0.83352568     0.06550
C758        C  0.13316554  0.58285339  0.83860972    -0.03570
Br759      Br  0.17940078  0.58450260  0.81568976    -0.02120
Br760      Br  0.13200017  0.65725860  0.85604272    -0.02190
Br761      Br  0.08262377  0.50627116  0.77536984    -0.02150
Br762      Br  0.05612763  0.57886781  0.74024321    -0.02140
C763        C  0.14477916  0.58344227  0.92679889    -0.03260
C764        C  0.15973524  0.55514632  0.90563312     0.06420
C765        C  0.19624462  0.55868303  0.89485357    -0.03370
C766        C  0.21603850  0.59030716  0.90217997    -0.03380
C767        C  0.19953370  0.61938054  0.91950008     0.06550
C768        C  0.16422359  0.61580577  0.93258517    -0.03570
Br769      Br  0.14361919  0.65477348  0.96063326    -0.02120
Br770      Br  0.09981949  0.57834397  0.95144699    -0.02190
Br771      Br  0.26583958  0.59462829  0.88743669    -0.02150
Br772      Br  0.21950669  0.52255115  0.86664729    -0.02140
C773        C  0.08278017  0.35919579  0.84568441    -0.03260
C774        C  0.09827202  0.35465710  0.81153546     0.06420
C775        C  0.11916674  0.38212928  0.79627677    -0.03370
C776        C  0.12423239  0.41485861  0.81496095    -0.03380
C777        C  0.10756226  0.42031099  0.84900249     0.06550
C778        C  0.08613467  0.39241903  0.86372271    -0.03570
Br779      Br  0.05486748  0.40165396  0.90386619    -0.02120
Br780      Br  0.05480647  0.32051332  0.86661520    -0.02190
Br781      Br  0.14903956  0.45316367  0.79022082    -0.02150
Br782      Br  0.13876674  0.37537659  0.74858277    -0.02140
C783        C  0.19006910  0.41143483  0.88619049    -0.03260
C784        C  0.16012527  0.42266829  0.90759004     0.06420
C785        C  0.15110655  0.40060668  0.93731503    -0.03370
C786        C  0.17134038  0.36974787  0.94548417    -0.03380
C787        C  0.20030340  0.35956341  0.92381413     0.06550
C788        C  0.20889076  0.37953562  0.89351616    -0.03570
Br789      Br  0.24676052  0.36235040  0.86197316    -0.02120
Br790      Br  0.20938138  0.43922753  0.84823861    -0.02190
Br791      Br  0.15841210  0.33917951  0.98508481    -0.02150
Br792      Br  0.11105656  0.41028255  0.96729774    -0.02140
C793        C  0.11558590  0.49290151  0.97754496    -0.03260
C794        C  0.14732445  0.49154548  0.95645467     0.06420
C795        C  0.17977379  0.48438449  0.97465581    -0.03370
C796        C  0.18054424  0.47952985  0.01270346    -0.03380
C797        C  0.14935192  0.48506197  0.03459991     0.06550
C798        C  0.11658099  0.48758028  0.01530451    -0.03570
Br799      Br  0.07351603  0.46881444  0.03649407    -0.02120
Br800      Br  0.06918264  0.49338770  0.95376976    -0.02190
Br801      Br  0.22173537  0.45506198  0.03085223    -0.02150
Br802      Br  0.22336704  0.47863557  0.94728012    -0.02140
C803        C  0.03175487  0.45908993  0.84056159    -0.03260
C804        C  0.05312050  0.48864016  0.85397698     0.06420
C805        C  0.03268997  0.51637362  0.87120882    -0.03370
C806        C  0.99601511  0.51153652  0.88000739    -0.03380
C807        C  0.97499758  0.48236532  0.86646664     0.06550
C808        C  0.99535734  0.45406211  0.85081637    -0.03570
Br809      Br  0.98031505  0.40461198  0.85211102    -0.02120
Br810      Br  0.04322352  0.43192261  0.79763790    -0.02190
Br811      Br  0.97993619  0.53948768  0.92035818    -0.02150
Br812      Br  0.04956877  0.56505204  0.87917776    -0.02140
C813        C  0.61089357  0.91004375  0.86990222    -0.03260
C814        C  0.58046455  0.89187130  0.85561084     0.06420
C815        C  0.58540274  0.87203491  0.82298512    -0.03370
C816        C  0.61670496  0.87730982  0.80198610    -0.03380
C817        C  0.64546636  0.89759463  0.81583630     0.06550
C818        C  0.64400574  0.90962345  0.85155936    -0.03570
Br819      Br  0.68797269  0.92205485  0.87639802    -0.02120
Br820      Br  0.60833899  0.93731059  0.91330866    -0.02190
Br821      Br  0.62062762  0.85680265  0.75435655    -0.02150
Br822      Br  0.54983580  0.83900580  0.80507140    -0.02140
C823        C  0.60509155  0.84541901  0.93188546    -0.03260
C824        C  0.57581616  0.83529600  0.90968660     0.06420
C825        C  0.57700212  0.80044826  0.89333477    -0.03370
C826        C  0.60766200  0.77829473  0.89743532    -0.03380
C827        C  0.63827745  0.79161491  0.91544719     0.06550
C828        C  0.63729845  0.82607969  0.93104532    -0.03570
Br829      Br  0.67985121  0.84646251  0.95321109    -0.02120
Br830      Br  0.59900606  0.87577311  0.97292605    -0.02190
Br831      Br  0.60810552  0.72977222  0.87845769    -0.02150
Br832      Br  0.53531612  0.78046030  0.86937879    -0.02140
C833        C  0.44593928  0.90590197  0.81661527    -0.03260
C834        C  0.44509376  0.90141815  0.85479868     0.06420
C835        C  0.41061870  0.90591379  0.87173936    -0.03370
C836        C  0.37978333  0.91512049  0.85164808    -0.03380
C837        C  0.38141264  0.91768689  0.81405732     0.06550
C838        C  0.41448058  0.91285290  0.79669970    -0.03570
Br839      Br  0.41609667  0.91370136  0.74465577    -0.02120
Br840      Br  0.48844188  0.89909807  0.78858885    -0.02190
Br841      Br  0.33519274  0.92674587  0.87615787    -0.02150
Br842      Br  0.40253217  0.90037748  0.92238320    -0.02140
C843        C  0.42851959  0.82118128  0.87015456    -0.03260
C844        C  0.44876059  0.83186777  0.90110103     0.06420
C845        C  0.43969616  0.81324559  0.93285536    -0.03370
C846        C  0.41555298  0.78444142  0.93157483    -0.03380
C847        C  0.38737478  0.78575421  0.90725295     0.06550
C848        C  0.39457063  0.80363983  0.87465403    -0.03570
Br849      Br  0.36128958  0.80068906  0.83539559    -0.02120
Br850      Br  0.45008592  0.81980371  0.82335199    -0.02190
Br851      Br  0.42908332  0.73881018  0.95104072    -0.02150
Br852      Br  0.43331141  0.83937628  0.97597463    -0.02140
C853        C  0.58803494  0.88122178  0.17362530    -0.03260
C854        C  0.57659504  0.90511334  0.14640541     0.06420
C855        C  0.59818514  0.93616895  0.13950265    -0.03370
C856        C  0.63193957  0.94021977  0.15631849    -0.03380
C857        C  0.64299618  0.91539388  0.18225652     0.06550
C858        C  0.62088216  0.88636487  0.19132647    -0.03570
Br859      Br  0.63546977  0.85439094  0.22938239    -0.02120
Br860      Br  0.55784307  0.84348613  0.19092569    -0.02190
Br861      Br  0.66415806  0.97894097  0.14288596    -0.02150
Br862      Br  0.58268333  0.97450949  0.10859778    -0.02140
C863        C  0.60785701  0.85851417  0.07516250    -0.03260
C864        C  0.57649148  0.84424208  0.09207099     0.06420
C865        C  0.57730766  0.80720617  0.10224980    -0.03370
C866        C  0.60712678  0.78519433  0.09370097    -0.03380
C867        C  0.63755459  0.79991603  0.07684636     0.06550
C868        C  0.63830110  0.83682728  0.06877038    -0.03570
Br869      Br  0.68161858  0.85781038  0.04847293    -0.02120
Br870      Br  0.61093975  0.90689546  0.05838856    -0.02190
Br871      Br  0.60739976  0.73483696  0.10663016    -0.02150
Br872      Br  0.53863525  0.78520913  0.12900057    -0.02140
C873        C  0.41979239  0.92509528  0.14888179    -0.03260
C874        C  0.44487704  0.89775525  0.15639043     0.06420
C875        C  0.43808543  0.87893084  0.18879986    -0.03370
C876        C  0.40320453  0.87909275  0.20419620    -0.03380
C877        C  0.37584540  0.89940061  0.18829398     0.06550
C878        C  0.38370319  0.91890209  0.15707309    -0.03570
Br879      Br  0.34854448  0.95022605  0.13605369    -0.02120
Br880      Br  0.42944200  0.97090637  0.17211211    -0.02190
Br881      Br  0.39239136  0.85156287  0.24661253    -0.02150
Br882      Br  0.47654846  0.86222750  0.21797029    -0.02140
C883        C  0.42708637  0.81806372  0.12396297    -0.03260
C884        C  0.44403872  0.83971226  0.09708529     0.06420
C885        C  0.42688057  0.83959348  0.06356544    -0.03370
C886        C  0.40419974  0.81032796  0.05551012    -0.03380
C887        C  0.38000594  0.80002965  0.08211630     0.06550
C888        C  0.39201002  0.80371036  0.11783788    -0.03570
Br889      Br  0.36388598  0.78479576  0.15687747    -0.02120
Br890      Br  0.45387905  0.79702120  0.16188632    -0.02190
Br891      Br  0.42715656  0.76907422  0.03527452    -0.02150
Br892      Br  0.40757410  0.88442767  0.04842370    -0.02140
C893        C  0.51485667  0.88603507  0.02004616    -0.03260
C894        C  0.51045105  0.85434340  0.04089956     0.06420
C895        C  0.51248738  0.82118020  0.02121257    -0.03370
C896        C  0.51418258  0.82031508  0.98270198    -0.03380
C897        C  0.51242752  0.85247139  0.96222609     0.06550
C898        C  0.51485053  0.88519168  0.98197278    -0.03570
Br899      Br  0.52688507  0.92904824  0.95752863    -0.02120
Br900      Br  0.52821170  0.93106541  0.04214019    -0.02190
Br901      Br  0.51864738  0.77458937  0.95856393    -0.02150
Br902      Br  0.51600522  0.77616798  0.04556342    -0.02140
C903        C  0.58700344  0.10345819  0.82433008    -0.03260
C904        C  0.57489441  0.08029314  0.85218924     0.06420
C905        C  0.59649138  0.05086993  0.86152654    -0.03370
C906        C  0.62869577  0.04393524  0.84287932    -0.03380
C907        C  0.63946140  0.06571305  0.81411370     0.06550
C908        C  0.61923085  0.09617596  0.80557607    -0.03570
Br909      Br  0.63557544  0.12730342  0.76745655    -0.02120
Br910      Br  0.55894551  0.14336816  0.80866181    -0.02190
Br911      Br  0.65924261  0.00556548  0.85750263    -0.02150
Br912      Br  0.58043633  0.01840399  0.89789021    -0.02140
C913        C  0.57796250  0.17133732  0.89839830    -0.03260
C914        C  0.57432635  0.13506466  0.91033991     0.06420
C915        C  0.60392012  0.12027551  0.92906859    -0.03370
C916        C  0.63715522  0.13884529  0.93101271    -0.03380
C917        C  0.64015594  0.17455495  0.91909792     0.06550
C918        C  0.61037383  0.19088754  0.90326090    -0.03570
Br919      Br  0.61490600  0.24011110  0.88698852    -0.02120
Br920      Br  0.53891589  0.19653369  0.87685524    -0.02190
Br921      Br  0.67879944  0.11549437  0.95077370    -0.02150
Br922      Br  0.59862394  0.07890867  0.95894867    -0.02140
C923        C  0.40821988  0.06865387  0.86750675    -0.03260
C924        C  0.44063913  0.08077022  0.85128603     0.06420
C925        C  0.44031193  0.08716047  0.81361831    -0.03370
C926        C  0.40841855  0.08307532  0.79361533    -0.03380
C927        C  0.37623503  0.07300143  0.81061183     0.06550
C928        C  0.37597788  0.06666253  0.84780456    -0.03570
Br929      Br  0.33209582  0.05164285  0.87147386    -0.02120
Br930      Br  0.40925271  0.04450857  0.91274925    -0.02190
Br931      Br  0.40842459  0.09157815  0.74243712    -0.02150
Br932      Br  0.48308773  0.09940135  0.78742812    -0.02140
C933        C  0.40219106  0.18306325  0.89263736    -0.03260
C934        C  0.38000069  0.17675013  0.92227874     0.06420
C935        C  0.38798117  0.14893370  0.94615157    -0.03370
C936        C  0.42002178  0.12920650  0.94225693    -0.03380
C937        C  0.44237669  0.13421261  0.91143034     0.06550
C938        C  0.43258975  0.16143252  0.88661778    -0.03570
Br939      Br  0.46012703  0.17045370  0.84388150    -0.02120
Br940      Br  0.39046009  0.22168914  0.86029419    -0.02190
Br941      Br  0.43100547  0.09655593  0.98053739    -0.02150
Br942      Br  0.35384441  0.13737542  0.98387419    -0.02140
C943        C  0.47748057  0.00668988  0.86292948    -0.03260
C944        C  0.50496011  0.02853110  0.84957573     0.06420
C945        C  0.52983928  0.00892945  0.82818563    -0.03370
C946        C  0.53317633  0.97019716  0.83233604    -0.03380
C947        C  0.51270120  0.95097273  0.85977377     0.06550
C948        C  0.48699570  0.97374317  0.87744923    -0.03570
Br949      Br  0.46029353  0.96469894  0.91986986    -0.02120
Br950      Br  0.43950508  0.99757929  0.82910130    -0.02190
Br951      Br  0.56346230  0.94764755  0.79723848    -0.02150
Br952      Br  0.54918860  0.03212933  0.78610853    -0.02140
C953        C  0.57463411  0.06658273  0.19023852    -0.03260
C954        C  0.57494737  0.08809735  0.15946513     0.06420
C955        C  0.60632399  0.10973628  0.15765522    -0.03370
C956        C  0.63942325  0.09437170  0.16601453    -0.03380
C957        C  0.64019370  0.06399657  0.18889251     0.06550
C958        C  0.60646639  0.04851506  0.19907891    -0.03570
Br959      Br  0.60137534  0.00974597  0.23284595    -0.02120
Br960      Br  0.56143821  0.09314946  0.23300430    -0.02190
Br961      Br  0.68152615  0.11965069  0.14853378    -0.02150
Br962      Br  0.60392774  0.15756014  0.17780567    -0.02140
C963        C  0.60985496  0.19193222  0.08921870    -0.03260
C964        C  0.64007244  0.17533957  0.07405090     0.06420
C965        C  0.64057851  0.13785827  0.06807921    -0.03370
C966        C  0.61071814  0.11662647  0.07769184    -0.03380
C967        C  0.57927193  0.13341492  0.09133492     0.06550
C968        C  0.57983579  0.17097392  0.09861597    -0.03570
Br969      Br  0.54165412  0.19331225  0.12639133    -0.02120
Br970      Br  0.61027415  0.24326432  0.09865944    -0.02190
Br971      Br  0.61729633  0.06513800  0.07909357    -0.02150
Br972      Br  0.68280338  0.11541928  0.04751191    -0.02140
C973        C  0.44126534  0.08762179  0.18518641    -0.03260
C974        C  0.44221650  0.08649492  0.14712507     0.06420
C975        C  0.40936359  0.07829609  0.12873014    -0.03370
C976        C  0.37889450  0.06656669  0.14822241    -0.03380
C977        C  0.37980570  0.06477581  0.18595507     0.06550
C978        C  0.41087550  0.07570358  0.20434633    -0.03570
Br979      Br  0.41092504  0.07685418  0.25623049    -0.02120
Br980      Br  0.47839866  0.11239609  0.21172374    -0.02190
Br981      Br  0.33572911  0.05199698  0.12283123    -0.02150
Br982      Br  0.40179596  0.08730326  0.07810547    -0.02140
C983        C  0.41831556  0.18433388  0.05535936    -0.03260
C984        C  0.38734483  0.18264269  0.07802394     0.06420
C985        C  0.39247067  0.17084791  0.11383972    -0.03370
C986        C  0.42690734  0.15984485  0.12475057    -0.03380
C987        C  0.45353362  0.15311695  0.09847077     0.06550
C988        C  0.45215089  0.17776078  0.07019958    -0.03570
Br989      Br  0.46856922  0.22535453  0.08442305    -0.02120
Br990      Br  0.41896367  0.20674289  0.00909056    -0.02190
Br991      Br  0.44227413  0.17872424  0.17011161    -0.02150
Br992      Br  0.35482929  0.17123753  0.14966183    -0.02140
C993        C  0.51753804  0.97230827  0.16971278    -0.03260
C994        C  0.50586292  0.95308100  0.13900387     0.06420
C995        C  0.48867755  0.97349988  0.11201789    -0.03370
C996        C  0.49039726  0.01159308  0.11193583    -0.03380
C997        C  0.50512289  0.03175094  0.14115581     0.06550
C998        C  0.51366417  0.01061723  0.17201936    -0.03570
Br999      Br  0.50307103  0.02795976  0.21930790    -0.02120
Br1000     Br  0.53143493  0.94537173  0.21145719    -0.02190
Br1001     Br  0.46753747  0.03412573  0.07204433    -0.02150
Br1002     Br  0.45499481  0.95144398  0.07903619    -0.02140
C1003       C  0.52044457  0.09132117  0.01889460    -0.03260
C1004       C  0.51616690  0.12383387  0.03925339     0.06420
C1005       C  0.51491795  0.15591256  0.01821058    -0.03370
C1006       C  0.50903046  0.15464342  0.98050832    -0.03380
C1007       C  0.50992330  0.12174534  0.96142428     0.06550
C1008       C  0.51491962  0.09004018  0.98135118    -0.03570
Br1009     Br  0.51017933  0.04354019  0.95768916    -0.02120
Br1010     Br  0.54300921  0.04951088  0.03835411    -0.02190
Br1011     Br  0.49804556  0.19843484  0.95578175    -0.02150
Br1012     Br  0.53508135  0.20047383  0.03489310    -0.02140
C1013       C  0.95080549  0.83621467  0.62109588    -0.03260
C1014       C  0.92975410  0.80675036  0.63224819     0.06420
C1015       C  0.90001418  0.79565112  0.61196564    -0.03370
C1016       C  0.89364341  0.81133978  0.57844908    -0.03380
C1017       C  0.91432405  0.84153306  0.56703755     0.06550
C1018       C  0.94301024  0.85381445  0.58876022    -0.03570
Br1019     Br  0.97559035  0.89007680  0.57144191    -0.02120
Br1020     Br  0.99041198  0.85200803  0.65033720    -0.02190
Br1021     Br  0.86513195  0.78366880  0.54511468    -0.02150
Br1022     Br  0.86949756  0.75709950  0.62917743    -0.02140
C1023       C  0.87395071  0.92405658  0.59092019    -0.03260
C1024       C  0.86062143  0.89868749  0.56542491     0.06420
C1025       C  0.82789997  0.88037015  0.57388003    -0.03370
C1026       C  0.80934029  0.88724516  0.60605758    -0.03380
C1027       C  0.82349607  0.91157258  0.63097430     0.06550
C1028       C  0.85611921  0.92931255  0.62398517    -0.03570
Br1029     Br  0.87674653  0.95977314  0.66077638    -0.02120
Br1030     Br  0.91515530  0.95350240  0.58155914    -0.02190
Br1031     Br  0.76476015  0.86230452  0.61734045    -0.02150
Br1032     Br  0.80659923  0.84540621  0.54298401    -0.02140
C1033       C  0.87676879  0.90941044  0.40286214    -0.03260
C1034       C  0.85771428  0.89538515  0.43268167     0.06420
C1035       C  0.81986830  0.89066776  0.42853512    -0.03370
C1036       C  0.80275157  0.89814261  0.39580651    -0.03380
C1037       C  0.82320539  0.90749590  0.36566708     0.06550
C1038       C  0.86061563  0.91134752  0.36885467    -0.03570
Br1039     Br  0.89021430  0.91895254  0.32684247    -0.02120
Br1040     Br  0.92060113  0.93544957  0.40884128    -0.02190
Br1041     Br  0.75111275  0.89207021  0.39093729    -0.02150
Br1042     Br  0.78987843  0.87062593  0.46474170    -0.02140
C1043       C  0.87728632  0.82260963  0.40695018    -0.03260
C1044       C  0.89968554  0.82192817  0.43718029     0.06420
C1045       C  0.92261775  0.79175144  0.43738965    -0.03370
C1046       C  0.93619848  0.77740326  0.40485107    -0.03380
C1047       C  0.92209628  0.78923312  0.37154137     0.06550
C1048       C  0.89066847  0.81098214  0.37331866    -0.03570
Br1049     Br  0.86041239  0.81970645  0.33236967    -0.02120
Br1050     Br  0.82905950  0.80628566  0.41580653    -0.02190
Br1051     Br  0.97035398  0.73846473  0.40826734    -0.02150
Br1052     Br  0.91631213  0.75780147  0.47494459    -0.02140
C1053       C  0.88641138  0.14445407  0.59409473    -0.03260
C1054       C  0.90975567  0.14505746  0.56429273     0.06420
C1055       C  0.92920505  0.17778253  0.56246362    -0.03370
C1056       C  0.94171040  0.19452515  0.59414385    -0.03380
C1057       C  0.92756728  0.18356798  0.62786877     0.06550
C1058       C  0.89830692  0.15857932  0.62720276    -0.03570
Br1059     Br  0.86816706  0.14873199  0.66834328    -0.02120
Br1060     Br  0.83768151  0.15782599  0.58433406    -0.02190
Br1061     Br  0.97127912  0.23737274  0.58855015    -0.02150
Br1062     Br  0.91022305  0.21232491  0.53028053    -0.02140
C1063       C  0.80479960  0.06553542  0.59876176    -0.03260
C1064       C  0.82326830  0.05887033  0.63073171     0.06420
C1065       C  0.86111842  0.05799067  0.62983205    -0.03370
C1066       C  0.87986649  0.06183473  0.59688444    -0.03380
C1067       C  0.86223143  0.07368680  0.56538246     0.06550
C1068       C  0.82391855  0.07503235  0.56733012    -0.03570
Br1069     Br  0.79608567  0.09712622  0.53119510    -0.02120
Br1070     Br  0.75263518  0.06562915  0.59903658    -0.02190
Br1071     Br  0.92827704  0.04603883  0.59560774    -0.02150
Br1072     Br  0.88780787  0.05190391  0.67378979    -0.02140
C1073       C  0.94447362  0.13001233  0.40922981    -0.03260
C1074       C  0.91566193  0.13936724  0.43226651     0.06420
C1075       C  0.89542146  0.17056781  0.42333775    -0.03370
C1076       C  0.90252897  0.18967503  0.39138591    -0.03380
C1077       C  0.93275854  0.18120710  0.37047188     0.06550
C1078       C  0.95370786  0.15145533  0.37953301    -0.03570
Br1079     Br  0.99541982  0.14047847  0.35085407    -0.02120
Br1080     Br  0.97382152  0.08988255  0.41927346    -0.02190
Br1081     Br  0.87199103  0.22882498  0.37694824    -0.02150
Br1082     Br  0.86444953  0.19378144  0.45744137    -0.02140
C1083       C  0.85650065  0.04592370  0.37485848    -0.03260
C1084       C  0.82562577  0.06541577  0.36639203     0.06420
C1085       C  0.81309784  0.09204136  0.38974909    -0.03370
C1086       C  0.83062508  0.09834967  0.42258687    -0.03380
C1087       C  0.86243630  0.07928188  0.43182248     0.06550
C1088       C  0.87488580  0.05279649  0.40722096    -0.03570
Br1089     Br  0.91624023  0.02463804  0.41698352    -0.02120
Br1090     Br  0.87377080  0.01035841  0.34111598    -0.02190
Br1091     Br  0.80704042  0.13082091  0.45448971    -0.02150
Br1092     Br  0.77130850  0.11964972  0.37615215    -0.02140
C1093       C  0.84072123  0.96793842  0.49781045    -0.03260
C1094       C  0.87269834  0.94723486  0.49715260     0.06420
C1095       C  0.90540030  0.96710727  0.49714448    -0.03370
C1096       C  0.90583692  0.00543530  0.50012004    -0.03380
C1097       C  0.87410222  0.02627325  0.49725622     0.06550
C1098       C  0.84159310  0.00618845  0.49325205    -0.03570
Br1099     Br  0.79863883  0.02828986  0.47607834    -0.02120
Br1100     Br  0.79576104  0.94630413  0.51102974    -0.02190
Br1101     Br  0.95130837  0.02916965  0.50531258    -0.02150
Br1102     Br  0.95067581  0.94190963  0.49550561    -0.02140
C1103       C  0.15342226  0.06854208  0.63018104    -0.03260
C1104       C  0.19107834  0.06405782  0.62861601     0.06420
C1105       C  0.20879954  0.06942867  0.59584250    -0.03370
C1106       C  0.18944875  0.07984270  0.56515519    -0.03380
C1107       C  0.15114156  0.08273657  0.56517639     0.06550
C1108       C  0.13350073  0.07729471  0.59901827    -0.03570
Br1109     Br  0.08231473  0.08162176  0.60581060    -0.02120
Br1110     Br  0.12838372  0.06128681  0.67527358    -0.02190
Br1111     Br  0.21809662  0.09621687  0.52588194    -0.02150
Br1112     Br  0.26080046  0.06560518  0.59363652    -0.02140
C1113       C  0.06787448  0.15992556  0.56987475    -0.03260
C1114       C  0.10215839  0.14952103  0.55767397     0.06420
C1115       C  0.13181653  0.16369326  0.57747088    -0.03370
C1116       C  0.12655085  0.17836335  0.61239847    -0.03380
C1117       C  0.09171885  0.17897426  0.62734275     0.06550
C1118       C  0.06302636  0.16598895  0.60656871    -0.03570
Br1119     Br  0.01663759  0.15785503  0.62743240    -0.02120
Br1120     Br  0.04935287  0.20155481  0.54700937    -0.02190
Br1121     Br  0.16658792  0.19704386  0.63964659    -0.02150
Br1122     Br  0.17738688  0.17095245  0.55450878    -0.02140
C1123       C  0.12116606  0.17555986  0.42732661    -0.03260
C1124       C  0.10663167  0.13990447  0.42805740     0.06420
C1125       C  0.09199513  0.12560437  0.39588894    -0.03370
C1126       C  0.09373208  0.14496398  0.36384362    -0.03380
C1127       C  0.10341124  0.18157598  0.36455637     0.06550
C1128       C  0.11801990  0.19670411  0.39604514    -0.03570
Br1129     Br  0.13346284  0.24647203  0.39602727    -0.02120
Br1130     Br  0.13926238  0.19855529  0.47052599    -0.02190
Br1131     Br  0.08183161  0.12088007  0.31901206    -0.02150
Br1132     Br  0.06262128  0.08345035  0.39502232    -0.02140
C1133       C  0.14739272  0.05254132  0.40782614    -0.03260
C1134       C  0.15771466  0.07998476  0.43221879     0.06420
C1135       C  0.18940007  0.10031748  0.42415951    -0.03370
C1136       C  0.21122494  0.09082659  0.39452381    -0.03380
C1137       C  0.19851496  0.06589882  0.36905621     0.06550
C1138       C  0.16519789  0.04884252  0.37465877    -0.03570
Br1139     Br  0.14202461  0.02400759  0.33553274    -0.02120
Br1140     Br  0.11138891  0.01775251  0.42038112    -0.02190
Br1141     Br  0.25861016  0.11171741  0.38855681    -0.02150
Br1142     Br  0.20445939  0.14100756  0.45239748    -0.02140
C1143       C  0.98761491  0.16194982  0.48018723    -0.03260
C1144       C  0.96829808  0.13405262  0.49898084     0.06420
C1145       C  0.99083792  0.10732128  0.51335797    -0.03370
C1146       C  0.02620832  0.10250544  0.50118010    -0.03380
C1147       C  0.04707363  0.13202782  0.49056879     0.06550
C1148       C  0.02644244  0.16165250  0.47733307    -0.03570
Br1149     Br  0.04905117  0.20298819  0.45597345    -0.02120
Br1150     Br  0.96386883  0.20398282  0.46226777    -0.02190
Br1151     Br  0.03388213  0.05866098  0.47513859    -0.02150
Br1152     Br  0.98802570  0.09798940  0.56286321    -0.02140
C1153       C  0.08740279  0.85636005  0.59896222    -0.03260
C1154       C  0.10117837  0.84071587  0.56713011     0.06420
C1155       C  0.11516999  0.80505102  0.56881548    -0.03370
C1156       C  0.11149523  0.78493528  0.60072560    -0.03380
C1157       C  0.09744819  0.80119065  0.63190738     0.06550
C1158       C  0.08882021  0.83795774  0.63163730    -0.03570
Br1159     Br  0.07983664  0.86371430  0.67606895    -0.02120
Br1160     Br  0.06148764  0.90049320  0.59793634    -0.02190
Br1161     Br  0.12531002  0.73489518  0.60199286    -0.02150
Br1162     Br  0.13234393  0.78009872  0.52609521    -0.02140
C1163       C  0.15207069  0.92799800  0.59184189    -0.03260
C1164       C  0.15696735  0.89833994  0.56718713     0.06420
C1165       C  0.18504215  0.87376112  0.57622874    -0.03370
C1166       C  0.20636173  0.87845812  0.60732582    -0.03380
C1167       C  0.20055570  0.90764946  0.63034416     0.06550
C1168       C  0.17293406  0.93168769  0.62324850    -0.03570
Br1169     Br  0.16303366  0.96917799  0.65875243    -0.02120
Br1170     Br  0.11869242  0.96592829  0.58653840    -0.02190
Br1171     Br  0.24386799  0.84476949  0.61940050    -0.02150
Br1172     Br  0.19706224  0.83326750  0.54711689    -0.02140
C1173       C  0.13058310  0.81654510  0.41715582    -0.03260
C1174       C  0.10171801  0.83436789  0.43513372     0.06420
C1175       C  0.06738052  0.82595975  0.42142414    -0.03370
C1176       C  0.06377576  0.82018687  0.38447008    -0.03380
C1177       C  0.09194006  0.80364594  0.36558446     0.06550
C1178       C  0.12583658  0.80187644  0.38211653    -0.03570
Br1179     Br  0.16486081  0.77797925  0.35759290    -0.02120
Br1180     Br  0.17063767  0.79951684  0.44386882    -0.02190
Br1181     Br  0.01764606  0.82573552  0.36243716    -0.02150
Br1182     Br  0.04555675  0.78486398  0.44372582    -0.02140
C1183       C  0.16358099  0.91345495  0.37053257    -0.03260
C1184       C  0.20004066  0.90471370  0.36973462     0.06420
C1185       C  0.21598592  0.89055184  0.40041474    -0.03370
C1186       C  0.19556766  0.88566663  0.43226036    -0.03380
C1187       C  0.15819499  0.89489359  0.43412553     0.06550
C1188       C  0.14349188  0.90998373  0.40245112    -0.03570
Br1189     Br  0.09791699  0.93150430  0.40135717    -0.02120
Br1190     Br  0.14112496  0.93132783  0.32730983    -0.02190
Br1191     Br  0.22113977  0.86571093  0.47166403    -0.02150
Br1192     Br  0.26562173  0.87542857  0.39728726    -0.02140
C1193       C  0.17497679  0.97035185  0.49366980    -0.03260
C1194       C  0.14298715  0.94989740  0.49883741     0.06420
C1195       C  0.11157527  0.97018802  0.50565638    -0.03370
C1196       C  0.11315051  0.00813766  0.51071336    -0.03380
C1197       C  0.14327082  0.02919497  0.49990491     0.06550
C1198       C  0.17426675  0.00872692  0.48955301    -0.03570
Br1199     Br  0.21674668  0.02997947  0.46895389    -0.02120
Br1200     Br  0.22088094  0.94832816  0.49970385    -0.02190
Br1201     Br  0.07562484  0.02847773  0.53936616    -0.02150
Br1202     Br  0.06682463  0.94643506  0.51710216    -0.02140
C1203       C  0.02079263  0.86654850  0.47711743    -0.03260
C1204       C  0.04338187  0.84688629  0.50069391     0.06420
C1205       C  0.02355268  0.81942476  0.51998880    -0.03370
C1206       C  0.98461611  0.81705249  0.51965415    -0.03380
C1207       C  0.96328536  0.83881977  0.49635327     0.06550
C1208       C  0.98402140  0.85851638  0.47157370    -0.03570
Br1209     Br  0.96696663  0.86663391  0.42402231    -0.02120
Br1210     Br  0.03670628  0.90583679  0.44966710    -0.02190
Br1211     Br  0.96306386  0.77746913  0.54570299    -0.02150
Br1212     Br  0.04633452  0.77737824  0.53822755    -0.02140
loop_ 
_geom_bond_atom_site_label_1 
_geom_bond_atom_site_label_2 
_geom_bond_distance 
_geom_bond_site_symmetry_2 
_ccdc_geom_bond_type 
C1            C2   1.456       .  A
C1            C6   1.439       .  A
C1         C1164   1.553       .  S
C2            C3   1.457       .  A
C2         C1154   1.505       .  S
C3            C4   1.466       .  A
C3         C1204   1.599       .  S
C4            C5   1.471       .  A
C4         C1174   1.541       .  S
C5            C6   1.448       .  A
C5         C1187   1.547       .  S
C6         C1194   1.543       .  S
C7            C8   1.441       .  A
C7           C12   1.441       .  A
C7         C1134   1.510       .  S
C8            C9   1.449       .  A
C8         C1197   1.557       .  S
C9           C10   1.465       .  A
C9         C1107   1.546       .  S
C10          C11   1.455       .  A
C10        C1114   1.527       .  S
C11          C12   1.428       .  A
C11        C1147   1.557       .  S
C12        C1124   1.511       .  S
C13          C14   1.459       .  A
C13          C18   1.475       .  A
C13        C1054   1.543       .  S
C14          C15   1.439       .  A
C14        C1144   1.573       .  S
C15          C16   1.445       .  A
C15        C1074   1.520       .  S
C16          C17   1.442       .  A
C16        C1087   1.516       .  S
C17          C18   1.446       .  A
C17        C1097   1.551       .  S
C18        C1067   1.545       .  S
C19          C20   1.457       .  A
C19          C24   1.475       .  A
C19        C1044   1.552       .  S
C20          C21   1.436       .  A
C20        C1207   1.577       .  S
C21          C22   1.436       .  A
C21        C1017   1.494       .  S
C22          C23   1.426       .  A
C22        C1024   1.516       .  S
C23          C24   1.444       .  A
C23        C1094   1.543       .  S
C24        C1034   1.525       .  S
C25          C26   1.448       .  A
C25          C30   1.455       .  A
C25         C987   1.543       .  S
C26          C27   1.431       .  A
C26        C1004   1.560       .  S
C27          C28   1.451       .  A
C27         C967   1.487       .  S
C28          C29   1.449       .  A
C28         C954   1.552       .  S
C29          C30   1.451       .  A
C29         C997   1.559       .  S
C30         C974   1.518       .  S
C31          C32   1.428       .  A
C31          C36   1.443       .  A
C31         C937   1.514       .  S
C32          C33   1.426       .  A
C32        C1007   1.516       .  S
C33          C34   1.443       .  A
C33         C914   1.528       .  S
C34          C35   1.450       .  A
C34         C904   1.501       .  S
C35          C36   1.439       .  A
C35         C944   1.556       .  S
C36         C924   1.520       .  S
C37          C38   1.430       .  A
C37          C42   1.457       .  A
C37         C874   1.539       .  S
C38          C39   1.438       .  A
C38         C994   1.525       .  S
C39          C40   1.442       .  A
C39         C854   1.509       .  S
C40          C41   1.431       .  A
C40         C864   1.528       .  S
C41          C42   1.461       .  A
C41         C894   1.553       .  S
C42         C884   1.521       .  S
C43          C44   1.464       .  A
C43          C48   1.464       .  A
C43         C834   1.553       .  S
C44          C45   1.468       .  A
C44         C947   1.581       .  S
C45          C46   1.443       .  A
C45         C814   1.510       .  S
C46          C47   1.410       .  A
C46         C824   1.522       .  S
C47          C48   1.448       .  A
C47         C897   1.543       .  S
C48         C844   1.538       .  S
C49          C50   1.441       .  A
C49          C54   1.435       .  A
C49         C777   1.488       .  S
C50          C51   1.442       .  A
C50         C804   1.569       .  S
C51          C52   1.470       .  A
C51         C757   1.555       .  S
C52          C53   1.439       .  A
C52         C764   1.513       .  S
C53          C54   1.427       .  A
C53         C794   1.532       .  S
C54         C784   1.532       .  S
C55          C56   1.444       .  A
C55          C60   1.466       .  A
C55         C714   1.534       .  S
C56          C57   1.422       .  A
C56         C797   1.560       .  S
C57          C58   1.444       .  A
C57         C734   1.517       .  S
C58          C59   1.448       .  A
C58         C724   1.495       .  S
C59          C60   1.460       .  A
C59         C747   1.591       .  S
C60         C704   1.532       .  S
C61          C62   1.468       .  A
C61          C66   1.470       .  A
C61         C654   1.536       .  S
C62          C63   1.469       .  A
C62         C744   1.595       .  S
C63          C64   1.446       .  A
C63         C674   1.541       .  S
C64          C65   1.423       .  A
C64         C687   1.499       .  S
C65          C66   1.432       .  A
C65         C697   1.543       .  S
C66         C667   1.538       .  S
C67          C68   1.443       .  A
C67          C72   1.463       .  A
C67         C614   1.570       .  S
C68          C69   1.449       .  A
C68         C807   1.561       .  S
C69          C70   1.443       .  A
C69         C634   1.553       .  S
C70          C71   1.430       .  A
C70         C644   1.504       .  S
C71          C72   1.447       .  A
C71         C694   1.546       .  S
C72         C624   1.509       .  S
N73          N74   1.325       .  A
N73          N79   1.318       .  A
N73        Mn102   2.201       .  S
N74          C81   1.353       .  A
N75          N77   1.316       .  A
N75          N76   1.310       .  A
N75         Mn91   2.179       .  S
N76          C82   1.344       .  A
N77          N78   1.328       .  A
N77        Mn102   2.214       .  S
N78          C82   1.358       .  A
N79          N80   1.312       .  A
N79         Mn91   2.198       .  S
N80          C81   1.348       .  A
C81         C498   1.458       .  S
C82         C251   1.461       .  S
N83          N89   1.315       .  A
N83          N84   1.323       .  A
N83        Mn113   2.212       .  S
N84          C92   1.356       .  A
N85          N86   1.321       .  A
N85          N87   1.313       .  A
N85         Mn91   2.196       .  S
N86          C93   1.353       .  A
N87          N88   1.319       .  A
N87        Mn113   2.195       .  S
N88          C93   1.352       .  A
N89          N90   1.321       .  A
N89         Mn91   2.200       .  S
N90          C92   1.352       .  A
Mn91       Cl115   2.496       .  S
C92         C837   1.490       .  S
C93        C1167   1.474       .  S
N94          N95   1.325       .  A
N94         N100   1.316       .  A
N94        Mn102   2.205   1_545  S
N95         C103   1.356       .  A
N96          N98   1.315       .  A
N96          N97   1.308       .  A
N96        Mn114   2.174       .  S
N97         C104   1.344       .  A
N98          N99   1.329       .  A
N98        Mn102   2.214   1_545  S
N99         C104   1.358       .  A
N100        N101   1.310       .  A
N100       Mn114   2.181       .  S
N101        C103   1.345       .  A
Mn102      Cl115   2.590       .  S
C103        C374   1.454       .  S
C104        C126   1.460       .  S
N105        N106   1.324       .  A
N105        N111   1.314       .  A
N105       Mn113   2.222   1_545  S
N106        C116   1.358       .  A
N107        N108   1.321       .  A
N107        N109   1.312       .  A
N107       Mn114   2.185       .  S
N108        C117   1.350       .  A
N109        N110   1.321       .  A
N109       Mn113   2.200   1_545  S
N110        C117   1.353       .  A
N111        N112   1.321       .  A
N111       Mn114   2.194       .  S
N112        C116   1.351       .  A
Mn113      Cl115   2.571       .  S
Mn114      Cl115   2.497   1_545  S
C116       C1104   1.496       .  S
C117        C927   1.478       .  S
N118        N119   1.329       .  A
N118        N124   1.316       .  A
N118       Mn147   2.219       .  S
N119        C126   1.358       .  A
N120        N122   1.317       .  A
N120        N121   1.312       .  A
N120       Mn136   2.194       .  S
N121        C127   1.347       .  A
N122        N123   1.328       .  A
N122       Mn147   2.213       .  S
N123        C127   1.357       .  A
N124        N125   1.308       .  A
N124       Mn136   2.173       .  S
N125        C126   1.344       .  A
C127        C373   1.466       .  S
N128        N134   1.314       .  A
N128        N129   1.318       .  A
N128       Mn158   2.193       .  S
N129        C137   1.352       .  A
N130        N131   1.324       .  A
N130        N132   1.313       .  A
N130       Mn136   2.196       .  S
N131        C138   1.353       .  A
N132        N133   1.318       .  A
N132       Mn158   2.204       .  S
N133        C138   1.354       .  A
N134        N135   1.317       .  A
N134       Mn136   2.179       .  S
N135        C137   1.347       .  A
Mn136      Cl160   2.496       .  S
C137        C774   1.459       .  S
C138       C1117   1.481       .  S
N139        N140   1.328       .  A
N139        N145   1.318       .  A
N139       Mn147   2.223   1_655  S
N140        C148   1.357       .  A
N141        N143   1.317       .  A
N141        N142   1.314       .  A
N141       Mn159   2.197       .  S
N142        C149   1.348       .  A
N143        N144   1.326       .  A
N143       Mn147   2.207   1_655  S
N144        C149   1.355       .  A
N145        N146   1.312       .  A
N145       Mn159   2.191       .  S
N146        C148   1.346       .  A
Mn147      Cl160   2.596       .  S
C148        C477   1.464       .  S
C149        C531   1.463       .  S
N150        N151   1.319       .  A
N150        N156   1.311       .  A
N150       Mn158   2.203   1_655  S
N151        C161   1.355       .  A
N152        N153   1.315       .  A
N152        N154   1.312       .  A
N152       Mn159   2.206       .  S
N153        C162   1.351       .  A
N154        N155   1.330       .  A
N154       Mn158   2.221   1_655  S
N155        C162   1.362       .  A
N156        N157   1.319       .  A
N156       Mn159   2.186       .  S
N157        C161   1.352       .  A
Mn158      Cl160   2.580       .  S
Mn159      Cl160   2.496   1_655  S
C161       C1057   1.501       .  S
C162        C637   1.509       .  S
N163        N164   1.326       .  A
N163        N169   1.315       .  A
N163       Mn192   2.211       .  S
N164        C171   1.358       .  A
N165        N167   1.316       .  A
N165        N166   1.310       .  A
N165       Mn181   2.183       .  S
N166        C172   1.344       .  A
N167        N168   1.328       .  A
N167       Mn192   2.216       .  S
N168        C172   1.358       .  A
N169        N170   1.307       .  A
N169       Mn181   2.161       .  S
N170        C171   1.342       .  A
C171        C318   1.451       .  S
C172        C227   1.462       .  S
N173        N179   1.312       .  A
N173        N174   1.320       .  A
N173       Mn203   2.208       .  S
N174        C182   1.356       .  A
N175        N176   1.324       .  A
N175        N177   1.313       .  A
N175       Mn181   2.192       .  S
N176        C183   1.351       .  A
N177        N178   1.320       .  A
N177       Mn203   2.213       .  S
N178        C183   1.356       .  A
N179        N180   1.320       .  A
N179       Mn181   2.176       .  S
N180        C182   1.349       .  A
Mn181      Cl205   2.497       .  S
C182        C707   1.484       .  S
C183       C1177   1.485       .  S
N184        N185   1.328       .  A
N184        N190   1.317       .  A
N184       Mn192   2.225   1_655  S
N185        C193   1.359       .  A
N186        N188   1.316       .  A
N186        N187   1.311       .  A
N186       Mn204   2.187       .  S
N187        C194   1.347       .  A
N188        N189   1.325       .  A
N188       Mn192   2.201   1_655  S
N189        C194   1.354       .  A
N190        N191   1.311       .  A
N190       Mn204   2.183       .  S
N191        C193   1.344       .  A
Mn192      Cl205   2.591       .  S
C193        C577   1.464       .  S
C194        C431   1.456       .  S
N195        N196   1.320       .  A
N195        N201   1.311       .  A
N195       Mn203   2.206   1_655  S
N196        C206   1.356       .  A
N197        N198   1.323       .  A
N197        N199   1.313       .  A
N197       Mn204   2.197       .  S
N198        C207   1.353       .  A
N199        N200   1.319       .  A
N199       Mn203   2.208   1_655  S
N200        C207   1.355       .  A
N201        N202   1.321       .  A
N201       Mn204   2.202       .  S
N202        C206   1.355       .  A
Mn203      Cl205   2.569       .  S
Mn204      Cl205   2.496   1_655  S
C206       C1047   1.509       .  S
C207        C657   1.489       .  S
N208        N209   1.319       .  A
N208        N214   1.314       .  A
N208       Mn237   2.210   1_554  S
N209        C216   1.357       .  A
N210        N212   1.312       .  A
N210        N211   1.323       .  A
N210       Mn226   2.198       .  S
N211        C217   1.355       .  A
N212        N213   1.320       .  A
N212       Mn237   2.206   1_554  S
N213        C217   1.354       .  A
N214        N215   1.323       .  A
N214       Mn226   2.198       .  S
N215        C216   1.352       .  A
C216        C887   1.487       .  S
C217        C717   1.494       .  S
N218        N224   1.316       .  A
N218        N219   1.328       .  A
N218       Mn248   2.215   1_554  S
N219        C227   1.357       .  A
N220        N221   1.310       .  A
N220        N222   1.316       .  A
N220       Mn226   2.183       .  S
N221        C228   1.345       .  A
N222        N223   1.326       .  A
N222       Mn248   2.208   1_554  S
N223        C228   1.356       .  A
N224        N225   1.311       .  A
N224       Mn226   2.184       .  S
N225        C227   1.346       .  A
Mn226      Cl250   2.505   1_554  S
C228        C317   1.457       .  S
N229        N230   1.317       .  A
N229        N235   1.314       .  A
N229       Mn237   2.189       .  S
N230        C238   1.349       .  A
N231        N233   1.313       .  A
N231        N232   1.327       .  A
N231       Mn249   2.214       .  S
N232        C239   1.358       .  A
N233        N234   1.317       .  A
N233       Mn237   2.207       .  S
N234        C239   1.356       .  A
N235        N236   1.321       .  A
N235       Mn249   2.192       .  S
N236        C238   1.351       .  A
Mn237      Cl250   2.561       .  S
C238        C767   1.468       .  S
C239        C847   1.496       .  S
N240        N241   1.327       .  A
N240        N246   1.318       .  A
N240       Mn248   2.218       .  S
N241        C251   1.357       .  A
N242        N243   1.312       .  A
N242        N244   1.316       .  A
N242       Mn249   2.193       .  S
N243        C252   1.347       .  A
N244        N245   1.326       .  A
N244       Mn248   2.203       .  S
N245        C252   1.355       .  A
N246        N247   1.311       .  A
N246       Mn249   2.185       .  S
N247        C251   1.346       .  A
Mn248      Cl250   2.593       .  S
Mn249      Cl250   2.507       .  S
C252        C497   1.461       .  S
N253        N254   1.323       .  A
N253        N259   1.312       .  A
N253       Mn282   2.219       .  S
N254        C261   1.358       .  A
N255        N257   1.314       .  A
N255        N256   1.317       .  A
N255       Mn271   2.151       .  S
N256        C262   1.341       .  A
N257        N258   1.323       .  A
N257       Mn282   2.241       .  S
N258        C262   1.360       .  A
N259        N260   1.318       .  A
N259       Mn271   2.178       .  S
N260        C261   1.349       .  A
C261       C1127   1.477       .  S
C262        C727   1.473       .  S
N263        N269   1.314       .  A
N263        N264   1.328       .  A
N263       Mn293   2.213       .  S
N264        C272   1.359       .  A
N265        N266   1.310       .  A
N265        N267   1.316       .  A
N265       Mn271   2.168       .  S
N266        C273   1.342       .  A
N267        N268   1.330       .  A
N267       Mn293   2.235       .  S
N268        C273   1.361       .  A
N269        N270   1.308       .  A
N269       Mn271   2.166       .  S
N270        C272   1.341       .  A
Mn271      Cl295   2.498       .  S
C272        C352   1.458       .  S
C273        C341   1.464       .  S
N274        N275   1.322       .  A
N274        N280   1.314       .  A
N274       Mn282   2.212   1_655  S
N275        C283   1.356       .  A
N276        N278   1.317       .  A
N276        N277   1.320       .  A
N276       Mn294   2.195       .  S
N277        C284   1.348       .  A
N278        N279   1.324       .  A
N278       Mn282   2.229   1_655  S
N279        C284   1.358       .  A
N280        N281   1.322       .  A
N280       Mn294   2.211       .  S
N281        C283   1.355       .  A
Mn282      Cl295   2.576       .  S
C283        C677   1.489       .  S
C284       C1077   1.479       .  S
N285        N286   1.326       .  A
N285        N291   1.317       .  A
N285       Mn293   2.203   1_655  S
N286        C296   1.354       .  A
N287        N288   1.315       .  A
N287        N289   1.319       .  A
N287       Mn294   2.197       .  S
N288        C297   1.347       .  A
N289        N290   1.329       .  A
N289       Mn293   2.237   1_655  S
N290        C297   1.359       .  A
N291        N292   1.314       .  A
N291       Mn294   2.204       .  S
N292        C296   1.349       .  A
Mn293      Cl295   2.601       .  S
Mn294      Cl295   2.507   1_655  S
C296        C408   1.464       .  S
C297        C452   1.473       .  S
N298        N299   1.323       .  A
N298        N304   1.313       .  A
N298       Mn327   2.205       .  S
N299        C306   1.355       .  A
N300        N302   1.313       .  A
N300        N301   1.321       .  A
N300       Mn316   2.180       .  S
N301        C307   1.348       .  A
N302        N303   1.320       .  A
N302       Mn327   2.217       .  S
N303        C307   1.356       .  A
N304        N305   1.320       .  A
N304       Mn316   2.198       .  S
N305        C306   1.353       .  A
C306       C1184   1.481       .  S
C307        C877   1.471       .  S
N308        N314   1.316       .  A
N308        N309   1.327       .  A
N308       Mn338   2.207       .  S
N309        C317   1.357       .  A
N310        N311   1.308       .  A
N310        N312   1.316       .  A
N310       Mn316   2.177       .  S
N311        C318   1.345       .  A
N312        N313   1.325       .  A
N312       Mn338   2.199       .  S
N313        C318   1.354       .  A
N314        N315   1.310       .  A
N314       Mn316   2.179       .  S
N315        C317   1.344       .  A
Mn316      Cl340   2.494       .  S
N319        N320   1.322       .  A
N319        N325   1.315       .  A
N319       Mn327   2.204   1_545  S
N320        C328   1.354       .  A
N321        N323   1.316       .  A
N321        N322   1.321       .  A
N321       Mn339   2.197       .  S
N322        C329   1.350       .  A
N323        N324   1.323       .  A
N323       Mn327   2.214   1_545  S
N324        C329   1.354       .  A
N325        N326   1.318       .  A
N325       Mn339   2.188       .  S
N326        C328   1.349       .  A
Mn327      Cl340   2.571       .  S
C328        C977   1.477       .  S
C329       C1137   1.476       .  S
N330        N331   1.327       .  A
N330        N336   1.316       .  A
N330       Mn338   2.208   1_545  S
N331        C341   1.355       .  A
N332        N333   1.312       .  A
N332        N334   1.316       .  A
N332       Mn339   2.196       .  S
N333        C342   1.348       .  A
N334        N335   1.328       .  A
N334       Mn338   2.210   1_545  S
N335        C342   1.357       .  A
N336        N337   1.312       .  A
N336       Mn339   2.194       .  S
N337        C341   1.348       .  A
Mn338      Cl340   2.598       .  S
Mn339      Cl340   2.497   1_545  S
C342        C351   1.466       .  S
N343        N344   1.329       .  A
N343        N349   1.316       .  A
N343       Mn372   2.227   1_554  S
N344        C351   1.359       .  A
N345        N347   1.318       .  A
N345        N346   1.310       .  A
N345       Mn361   2.196       .  S
N346        C352   1.347       .  A
N347        N348   1.326       .  A
N347       Mn372   2.202   1_554  S
N348        C352   1.355       .  A
N349        N350   1.311       .  A
N349       Mn361   2.175       .  S
N350        C351   1.344       .  A
N353        N359   1.313       .  A
N353        N354   1.322       .  A
N353       Mn383   2.200       .  S
N354        C362   1.355       .  A
N355        N356   1.321       .  A
N355        N357   1.312       .  A
N355       Mn361   2.200       .  S
N356        C363   1.355       .  A
N357        N358   1.318       .  A
N357       Mn383   2.192       .  S
N358        C363   1.352       .  A
N359        N360   1.320       .  A
N359       Mn361   2.198       .  S
N360        C362   1.352       .  A
Mn361      Cl385   2.493       .  S
C362        C737   1.478       .  S
C363        C984   1.493       .  S
N364        N365   1.329       .  A
N364        N370   1.316       .  A
N364       Mn372   2.228       .  S
N365        C373   1.359       .  A
N366        N368   1.316       .  A
N366        N367   1.310       .  A
N366       Mn384   2.183       .  S
N367        C374   1.345       .  A
N368        N369   1.325       .  A
N368       Mn372   2.203       .  S
N369        C374   1.355       .  A
N370        N371   1.311       .  A
N370       Mn384   2.179       .  S
N371        C373   1.345       .  A
Mn372      Cl385   2.597   1_556  S
N375        N376   1.319       .  A
N375        N381   1.313       .  A
N375       Mn383   2.195   1_556  S
N376        C386   1.351       .  A
N377        N378   1.319       .  A
N377        N379   1.314       .  A
N377       Mn384   2.189       .  S
N378        C387   1.349       .  A
N379        N380   1.320       .  A
N379       Mn383   2.198   1_556  S
N380        C387   1.353       .  A
N381        N382   1.320       .  A
N381       Mn384   2.184       .  S
N382        C386   1.349       .  A
Mn383      Cl385   2.572       .  S
Mn384      Cl385   2.495   1_556  S
C386        C934   1.469       .  S
C387        C787   1.468       .  S
N388        N389   1.319       .  A
N388        N394   1.313       .  A
N388       Mn417   2.181   1_545  S
N389        C396   1.349       .  A
N390        N392   1.309       .  A
N390        N391   1.316       .  A
N390       Mn406   2.187       .  S
N391        C397   1.352       .  A
N392        N393   1.318       .  A
N392       Mn417   2.174   1_545  S
N393        C397   1.350       .  A
N394        N395   1.320       .  A
N394       Mn406   2.192       .  S
N395        C396   1.350       .  A
C396       C1084   1.465       .  S
C397        C957   1.494       .  S
N398        N404   1.318       .  A
N398        N399   1.328       .  A
N398       Mn428   2.228   1_545  S
N399        C407   1.359       .  A
N400        N401   1.311       .  A
N400        N402   1.317       .  A
N400       Mn406   2.176       .  S
N401        C408   1.344       .  A
N402        N403   1.328       .  A
N402       Mn428   2.231   1_545  S
N403        C408   1.360       .  A
N404        N405   1.312       .  A
N404       Mn406   2.183       .  S
N405        C407   1.344       .  A
Mn406      Cl430   2.486   1_545  S
C407        C453   1.466       .  S
N409        N410   1.317       .  A
N409        N415   1.312       .  A
N409       Mn417   2.174       .  S
N410        C418   1.346       .  A
N411        N413   1.311       .  A
N411        N412   1.322       .  A
N411       Mn429   2.194       .  S
N412        C419   1.352       .  A
N413        N414   1.317       .  A
N413       Mn417   2.178       .  S
N414        C419   1.350       .  A
N415        N416   1.322       .  A
N415       Mn429   2.193       .  S
N416        C418   1.351       .  A
Mn417      Cl430   2.578       .  S
C418        C857   1.464       .  S
C419       C1037   1.473       .  S
N420        N421   1.327       .  A
N420        N426   1.317       .  A
N420       Mn428   2.222       .  S
N421        C431   1.359       .  A
N422        N423   1.310       .  A
N422        N424   1.317       .  A
N422       Mn429   2.176       .  S
N423        C432   1.343       .  A
N424        N425   1.330       .  A
N424       Mn428   2.234       .  S
N425        C432   1.361       .  A
N426        N427   1.308       .  A
N426       Mn429   2.169       .  S
N427        C431   1.342       .  A
Mn428      Cl430   2.589       .  S
Mn429      Cl430   2.486       .  S
C432        C576   1.466       .  S
N433        N434   1.317       .  A
N433        N439   1.315       .  A
N433       Mn462   2.170   1_554  S
N434        C441   1.347       .  A
N435        N437   1.314       .  A
N435        N436   1.322       .  A
N435       Mn451   2.218       .  S
N436        C442   1.357       .  A
N437        N438   1.319       .  A
N437       Mn462   2.185   1_554  S
N438        C442   1.350       .  A
N439        N440   1.318       .  A
N439       Mn451   2.196       .  S
N440        C441   1.350       .  A
C441        C964   1.458       .  S
C442        C684   1.474       .  S
N443        N449   1.320       .  A
N443        N444   1.328       .  A
N443       Mn473   2.230       .  S
N444        C452   1.357       .  A
N445        N446   1.314       .  A
N445        N447   1.317       .  A
N445       Mn451   2.199       .  S
N446        C453   1.348       .  A
N447        N448   1.327       .  A
N447       Mn473   2.210       .  S
N448        C453   1.356       .  A
N449        N450   1.316       .  A
N449       Mn451   2.205       .  S
N450        C452   1.349       .  A
Mn451      Cl475   2.505   1_554  S
N454        N455   1.320       .  A
N454        N460   1.314       .  A
N454       Mn462   2.187       .  S
N455        C463   1.351       .  A
N456        N458   1.312       .  A
N456        N457   1.324       .  A
N456       Mn474   2.205       .  S
N457        C464   1.354       .  A
N458        N459   1.321       .  A
N458       Mn462   2.198       .  S
N459        C464   1.352       .  A
N460        N461   1.321       .  A
N460       Mn474   2.203       .  S
N461        C463   1.352       .  A
Mn462      Cl475   2.575       .  S
C463        C647   1.479       .  S
C464        C917   1.483       .  S
N465        N466   1.329       .  A
N465        N471   1.317       .  A
N465       Mn473   2.228   1_556  S
N466        C476   1.359       .  A
N467        N468   1.312       .  A
N467        N469   1.317       .  A
N467       Mn474   2.188       .  S
N468        C477   1.346       .  A
N469        N470   1.328       .  A
N469       Mn473   2.217   1_556  S
N470        C477   1.357       .  A
N471        N472   1.311       .  A
N471       Mn474   2.182       .  S
N472        C476   1.345       .  A
Mn473      Cl475   2.593   1_554  S
Mn474      Cl475   2.501       .  S
C476        C532   1.466       .  S
N478        N479   1.322       .  A
N478        N484   1.312       .  A
N478       Mn507   2.214       .  S
N479        C486   1.356       .  A
N480        N482   1.311       .  A
N480        N481   1.317       .  A
N480       Mn496   2.172       .  S
N481        C487   1.349       .  A
N482        N483   1.318       .  A
N482       Mn507   2.202       .  S
N483        C487   1.356       .  A
N484        N485   1.320       .  A
N484       Mn496   2.183       .  S
N485        C486   1.350       .  A
C486       C1157   1.478       .  S
C487        C754   1.493       .  S
N488        N494   1.316       .  A
N488        N489   1.327       .  A
N488       Mn518   2.216       .  S
N489        C497   1.358       .  A
N490        N491   1.309       .  A
N490        N492   1.316       .  A
N490       Mn496   2.166       .  S
N491        C498   1.342       .  A
N492        N493   1.328       .  A
N492       Mn518   2.226       .  S
N493        C498   1.359       .  A
N494        N495   1.311       .  A
N494       Mn496   2.179       .  S
N495        C497   1.344       .  A
Mn496      Cl520   2.498       .  S
N499        N500   1.322       .  A
N499        N505   1.310       .  A
N499       Mn507   2.207   1_655  S
N500        C508   1.357       .  A
N501        N503   1.315       .  A
N501        N502   1.319       .  A
N501       Mn519   2.180       .  S
N502        C509   1.346       .  A
N503        N504   1.322       .  A
N503       Mn507   2.211   1_655  S
N504        C509   1.355       .  A
N505        N506   1.320       .  A
N505       Mn519   2.198       .  S
N506        C508   1.355       .  A
Mn507      Cl520   2.565       .  S
C508        C617   1.504       .  S
C509       C1014   1.469       .  S
N510        N511   1.329       .  A
N510        N516   1.316       .  A
N510       Mn518   2.213   1_655  S
N511        C521   1.358       .  A
N512        N513   1.312       .  A
N512        N514   1.318       .  A
N512       Mn519   2.185       .  S
N513        C522   1.345       .  A
N514        N515   1.328       .  A
N514       Mn518   2.229   1_655  S
N515        C522   1.358       .  A
N516        N517   1.309       .  A
N516       Mn519   2.180       .  S
N517        C521   1.344       .  A
Mn518      Cl520   2.597       .  S
Mn519      Cl520   2.497   1_655  S
C521        C554   1.461       .  S
C522        C598   1.465       .  S
N523        N524   1.327       .  A
N523        N529   1.317       .  A
N523       Mn552   2.224   1_545  S
N524        C531   1.358       .  A
N525        N527   1.318       .  A
N525        N526   1.311       .  A
N525       Mn541   2.191       .  S
N526        C532   1.346       .  A
N527        N528   1.329       .  A
N527       Mn552   2.223   1_545  S
N528        C532   1.358       .  A
N529        N530   1.312       .  A
N529       Mn541   2.180       .  S
N530        C531   1.344       .  A
N533        N539   1.314       .  A
N533        N534   1.322       .  A
N533       Mn563   2.208   1_545  S
N534        C542   1.355       .  A
N535        N536   1.325       .  A
N535        N537   1.314       .  A
N535       Mn541   2.208       .  S
N536        C543   1.355       .  A
N537        N538   1.322       .  A
N537       Mn563   2.208   1_545  S
N538        C543   1.353       .  A
N539        N540   1.321       .  A
N539       Mn541   2.197       .  S
N540        C542   1.350       .  A
Mn541      Cl565   2.495   1_545  S
C542        C907   1.478       .  S
C543       C1064   1.493       .  S
N544        N545   1.329       .  A
N544        N550   1.317       .  A
N544       Mn552   2.236       .  S
N545        C553   1.362       .  A
N546        N548   1.316       .  A
N546        N547   1.310       .  A
N546       Mn564   2.178       .  S
N547        C554   1.344       .  A
N548        N549   1.328       .  A
N548       Mn552   2.215       .  S
N549        C554   1.358       .  A
N550        N551   1.309       .  A
N550       Mn564   2.165       .  S
N551        C553   1.340       .  A
Mn552      Cl565   2.599       .  S
C553        C599   1.462       .  S
N555        N556   1.319       .  A
N555        N561   1.313       .  A
N555       Mn563   2.192       .  S
N556        C566   1.350       .  A
N557        N558   1.319       .  A
N557        N559   1.314       .  A
N557       Mn564   2.184       .  S
N558        C567   1.348       .  A
N559        N560   1.323       .  A
N559       Mn563   2.218       .  S
N560        C567   1.358       .  A
N561        N562   1.319       .  A
N561       Mn564   2.177       .  S
N562        C566   1.348       .  A
Mn563      Cl565   2.571       .  S
Mn564      Cl565   2.490       .  S
C566       C1027   1.464       .  S
C567        C817   1.476       .  S
N568        N569   1.328       .  A
N568        N574   1.316       .  A
N568       Mn597   2.213   1_554  S
N569        C576   1.357       .  A
N570        N572   1.317       .  A
N570        N571   1.313       .  A
N570       Mn586   2.198       .  S
N571        C577   1.348       .  A
N572        N573   1.327       .  A
N572       Mn597   2.208   1_554  S
N573        C577   1.355       .  A
N574        N575   1.312       .  A
N574       Mn586   2.191       .  S
N575        C576   1.347       .  A
N578        N584   1.314       .  A
N578        N579   1.324       .  A
N578       Mn608   2.222   1_554  S
N579        C587   1.357       .  A
N580        N581   1.319       .  A
N580        N582   1.315       .  A
N580       Mn586   2.195       .  S
N581        C588   1.350       .  A
N582        N583   1.325       .  A
N582       Mn608   2.224   1_554  S
N583        C588   1.357       .  A
N584        N585   1.319       .  A
N584       Mn586   2.191       .  S
N585        C587   1.350       .  A
Mn586      Cl610   2.508   1_554  S
C587        C664   1.486       .  S
C588        C867   1.484       .  S
N589        N590   1.327       .  A
N589        N595   1.317       .  A
N589       Mn597   2.214       .  S
N590        C598   1.356       .  A
N591        N593   1.318       .  A
N591        N592   1.314       .  A
N591       Mn609   2.207       .  S
N592        C599   1.350       .  A
N593        N594   1.326       .  A
N593       Mn597   2.199       .  S
N594        C599   1.353       .  A
N595        N596   1.313       .  A
N595       Mn609   2.194       .  S
N596        C598   1.347       .  A
Mn597      Cl610   2.595       .  S
N600        N601   1.323       .  A
N600        N606   1.315       .  A
N600       Mn608   2.217       .  S
N601        C611   1.356       .  A
N602        N603   1.322       .  A
N602        N604   1.316       .  A
N602       Mn609   2.208       .  S
N603        C612   1.352       .  A
N604        N605   1.324       .  A
N604       Mn608   2.221       .  S
N605        C612   1.357       .  A
N606        N607   1.322       .  A
N606       Mn609   2.204       .  S
N607        C611   1.354       .  A
Mn608      Cl610   2.575       .  S
Mn609      Cl610   2.511       .  S
C611        C827   1.481       .  S
C612        C627   1.484       .  S
C613        C614   1.426       .  A
C613        C618   1.396       .  A
C613       Br620   1.912       .  S
C614        C615   1.446       .  A
C615        C616   1.426       .  A
C615       Br622   1.926       .  S
C616        C617   1.410       .  A
C616       Br621   1.940       .  S
C617        C618   1.403       .  A
C618       Br619   1.934       .  S
C623        C624   1.422       .  A
C623        C628   1.417       .  A
C623       Br630   1.930       .  S
C624        C625   1.412       .  A
C625        C626   1.407       .  A
C625       Br632   1.906       .  S
C626        C627   1.404       .  A
C626       Br631   1.927       .  S
C627        C628   1.408       .  A
C628       Br629   1.928       .  S
C633        C634   1.406       .  A
C633        C638   1.399       .  A
C633       Br640   1.923       .  S
C634        C635   1.410       .  A
C635        C636   1.430       .  A
C635       Br642   1.919       .  S
C636        C637   1.429       .  A
C636       Br641   1.922       .  S
C637        C638   1.423       .  A
C638       Br639   1.929       .  S
C643        C644   1.417       .  A
C643        C648   1.408       .  A
C643       Br650   1.930       .  S
C644        C645   1.418       .  A
C645        C646   1.409       .  A
C645       Br652   1.918       .  S
C646        C647   1.411       .  A
C646       Br651   1.942       .  S
C647        C648   1.407       .  A
C648       Br649   1.933       .  S
C653        C654   1.416       .  A
C653        C658   1.423       .  A
C653       Br660   1.912       .  S
C654        C655   1.400       .  A
C655        C656   1.388       .  A
C655       Br662   1.910       .  S
C656        C657   1.410       .  A
C656       Br661   1.908   1_655  S
C657        C658   1.421       .  A
C658       Br659   1.927       .  S
C663        C664   1.403       .  A
C663        C668   1.419       .  A
C663       Br670   1.934       .  S
C664        C665   1.403       .  A
C665        C666   1.403       .  A
C665       Br672   1.937       .  S
C666        C667   1.414       .  A
C666       Br671   1.882       .  S
C667        C668   1.432       .  A
C668       Br669   1.912       .  S
C673        C674   1.424       .  A
C673        C678   1.401       .  A
C673       Br680   1.936       .  S
C674        C675   1.391       .  A
C675        C676   1.412       .  A
C675       Br682   1.905       .  S
C676        C677   1.409       .  A
C676       Br681   1.871   1_655  S
C677        C678   1.405       .  A
C678       Br679   1.925       .  S
C683        C684   1.403       .  A
C683        C688   1.413       .  A
C683       Br690   1.928       .  S
C684        C685   1.402       .  A
C685        C686   1.404       .  A
C685       Br692   1.922       .  S
C686        C687   1.416       .  A
C686       Br691   1.919       .  S
C687        C688   1.427       .  A
C688       Br689   1.936       .  S
C693        C694   1.422       .  A
C693        C698   1.422   1_556  A
C693       Br700   1.922       .  S
C694        C695   1.425       .  A
C695        C696   1.428   1_556  A
C695       Br702   1.919       .  S
C696        C697   1.421       .  A
C696       Br701   1.912       .  S
C697        C698   1.419       .  A
C698       Br699   1.924       .  S
C703        C704   1.435       .  A
C703        C708   1.416       .  A
C703       Br710   1.944       .  S
C704        C705   1.427       .  A
C705        C706   1.406       .  A
C705       Br712   1.909       .  S
C706        C707   1.399       .  A
C706       Br711   1.942       .  S
C707        C708   1.410       .  A
C708       Br709   1.934       .  S
C713        C714   1.416       .  A
C713        C718   1.420       .  A
C713       Br720   1.917       .  S
C714        C715   1.400       .  A
C715        C716   1.390       .  A
C715       Br722   1.921       .  S
C716        C717   1.420       .  A
C716       Br721   1.911       .  S
C717        C718   1.424       .  A
C718       Br719   1.928       .  S
C723        C724   1.399       .  A
C723        C728   1.405       .  A
C723       Br730   1.909       .  S
C724        C725   1.423       .  A
C725        C726   1.408       .  A
C725       Br732   1.911       .  S
C726        C727   1.399       .  A
C726       Br731   1.931       .  S
C727        C728   1.407       .  A
C728       Br729   1.934       .  S
C733        C734   1.424       .  A
C733        C738   1.415       .  A
C733       Br740   1.927       .  S
C734        C735   1.416       .  A
C735        C736   1.401       .  A
C735       Br742   1.898       .  S
C736        C737   1.401       .  A
C736       Br741   1.936       .  S
C737        C738   1.405       .  A
C738       Br739   1.929       .  S
C743        C744   1.423       .  A
C743        C748   1.418   1_655  A
C743       Br750   1.889       .  S
C744        C745   1.427       .  A
C745        C746   1.459   1_655  A
C745       Br752   1.930       .  S
C746        C747   1.451       .  A
C746       Br751   1.921       .  S
C747        C748   1.420       .  A
C748       Br749   1.922       .  S
C753        C754   1.417       .  A
C753        C758   1.395       .  A
C753       Br760   1.925       .  S
C754        C755   1.416       .  A
C755        C756   1.418       .  A
C755       Br762   1.945       .  S
C756        C757   1.434       .  A
C756       Br761   1.901       .  S
C757        C758   1.405       .  A
C758       Br759   1.918       .  S
C763        C764   1.422       .  A
C763        C768   1.411       .  A
C763       Br770   1.913       .  S
C764        C765   1.420       .  A
C765        C766   1.405       .  A
C765       Br772   1.905       .  S
C766        C767   1.396       .  A
C766       Br771   1.936       .  S
C767        C768   1.405       .  A
C768       Br769   1.936       .  S
C773        C774   1.404       .  A
C773        C778   1.402       .  A
C773       Br780   1.934       .  S
C774        C775   1.400       .  A
C775        C776   1.405       .  A
C775       Br782   1.933       .  S
C776        C777   1.423       .  A
C776       Br781   1.927       .  S
C777        C778   1.414       .  A
C778       Br779   1.921       .  S
C783        C784   1.429       .  A
C783        C788   1.408       .  A
C783       Br790   1.893       .  S
C784        C785   1.420       .  A
C785        C786   1.410       .  A
C785       Br792   1.893       .  S
C786        C787   1.396       .  A
C786       Br791   1.926       .  S
C787        C788   1.391       .  A
C788       Br789   1.938       .  S
C793        C794   1.416       .  A
C793        C798   1.423   1_556  A
C793       Br800   1.943       .  S
C794        C795   1.414       .  A
C795        C796   1.431   1_556  A
C795       Br802   1.924       .  S
C796        C797   1.430       .  A
C796       Br801   1.915       .  S
C797        C798   1.421       .  A
C798       Br799   1.912       .  S
C803        C804   1.436       .  A
C803        C808   1.416   1_455  A
C803       Br810   1.930       .  S
C804        C805   1.429       .  A
C805        C806   1.412   1_455  A
C805       Br812   1.927       .  S
C806        C807   1.420       .  A
C806       Br811   1.914       .  S
C807        C808   1.418       .  A
C808       Br809   1.913       .  S
C813        C814   1.416       .  A
C813        C818   1.406       .  A
C813       Br820   1.902       .  S
C814        C815   1.427       .  A
C815        C816   1.413       .  A
C815       Br822   1.913       .  S
C816        C817   1.400       .  A
C816       Br821   1.930       .  S
C817        C818   1.401       .  A
C818       Br819   1.932       .  S
C823        C824   1.416       .  A
C823        C828   1.400       .  A
C823       Br830   1.904       .  S
C824        C825   1.424       .  A
C825        C826   1.419       .  A
C825       Br832   1.931       .  S
C826        C827   1.408       .  A
C826       Br831   1.927       .  S
C827        C828   1.399       .  A
C828       Br829   1.933       .  S
C833        C834   1.434       .  A
C833        C838   1.414       .  A
C833       Br840   1.908       .  S
C834        C835   1.437       .  A
C835        C836   1.417       .  A
C835       Br842   1.922       .  S
C836        C837   1.406       .  A
C836       Br841   1.939       .  S
C837        C838   1.399       .  A
C838       Br839   1.940       .  S
C843        C844   1.431       .  A
C843        C848   1.426       .  A
C843       Br850   1.917       .  S
C844        C845   1.414       .  A
C845        C846   1.390       .  A
C845       Br852   1.884       .  S
C846        C847   1.389       .  A
C846       Br851   1.918       .  S
C847        C848   1.413       .  A
C848       Br849   1.922       .  S
C853        C854   1.421       .  A
C853        C858   1.401       .  A
C853       Br860   1.903       .  S
C854        C855   1.423       .  A
C855        C856   1.411       .  A
C855       Br862   1.930       .  S
C856        C857   1.405       .  A
C856       Br861   1.931       .  S
C857        C858   1.393       .  A
C858       Br859   1.938       .  S
C863        C864   1.424       .  A
C863        C868   1.411       .  A
C863       Br870   1.907       .  S
C864        C865   1.428       .  A
C865        C866   1.415       .  A
C865       Br872   1.927       .  S
C866        C867   1.401       .  A
C866       Br871   1.932       .  S
C867        C868   1.404       .  A
C868       Br869   1.938       .  S
C873        C874   1.413       .  A
C873        C878   1.393       .  A
C873       Br880   1.931       .  S
C874        C875   1.421       .  A
C875        C876   1.416       .  A
C875       Br882   1.910       .  S
C876        C877   1.406       .  A
C876       Br881   1.929       .  S
C877        C878   1.404       .  A
C878       Br879   1.928       .  S
C883        C884   1.431       .  A
C883        C888   1.423       .  A
C883       Br890   1.908       .  S
C884        C885   1.405       .  A
C885        C886   1.400       .  A
C885       Br892   1.906       .  S
C886        C887   1.390       .  A
C886       Br891   1.905       .  S
C887        C888   1.411       .  A
C888       Br889   1.923       .  S
C893        C894   1.423       .  A
C893        C898   1.419   1_554  A
C893       Br900   1.917       .  S
C894        C895   1.428       .  A
C895        C896   1.436   1_554  A
C895       Br902   1.912       .  S
C896        C897   1.423       .  A
C896       Br901   1.919       .  S
C897        C898   1.415       .  A
C898       Br899   1.920       .  S
C903        C904   1.423       .  A
C903        C908   1.411       .  A
C903       Br910   1.913       .  S
C904        C905   1.406       .  A
C905        C906   1.406       .  A
C905       Br912   1.911       .  S
C906        C907   1.403       .  A
C906       Br911   1.911       .  S
C907        C908   1.401       .  A
C908       Br909   1.932       .  S
C913        C914   1.425       .  A
C913        C918   1.413       .  A
C913       Br920   1.915       .  S
C914        C915   1.421       .  A
C915        C916   1.412       .  A
C915       Br922   1.912       .  S
C916        C917   1.403       .  A
C916       Br921   1.931       .  S
C917        C918   1.401       .  A
C918       Br919   1.934       .  S
C923        C924   1.418       .  A
C923        C928   1.409       .  A
C923       Br930   1.917       .  S
C924        C925   1.426       .  A
C925        C926   1.410       .  A
C925       Br932   1.917       .  S
C926        C927   1.402       .  A
C926       Br931   1.936       .  S
C927        C928   1.408       .  A
C928       Br929   1.933       .  S
C933        C934   1.397       .  A
C933        C938   1.407       .  A
C933       Br940   1.933       .  S
C934        C935   1.402       .  A
C935        C936   1.409       .  A
C935       Br942   1.939       .  S
C936        C937   1.428       .  A
C936       Br941   1.926       .  S
C937        C938   1.425       .  A
C938       Br939   1.921       .  S
C943        C944   1.392       .  A
C943        C948   1.389   1_545  A
C943       Br950   1.922   1_545  S
C944        C945   1.419       .  A
C945        C946   1.452   1_545  A
C945       Br952   1.929       .  S
C946        C947   1.460       .  A
C946       Br951   1.913       .  S
C947        C948   1.434       .  A
C948       Br949   1.895       .  S
C953        C954   1.403       .  A
C953        C958   1.406       .  A
C953       Br960   1.929       .  S
C954        C955   1.413       .  A
C955        C956   1.397       .  A
C955       Br962   1.921       .  S
C956        C957   1.419       .  A
C956       Br961   1.933       .  S
C957        C958   1.427       .  A
C958       Br959   1.927       .  S
C963        C964   1.400       .  A
C963        C968   1.400       .  A
C963       Br970   1.932       .  S
C964        C965   1.405       .  A
C965        C966   1.404       .  A
C965       Br972   1.935       .  S
C966        C967   1.419       .  A
C966       Br971   1.927       .  S
C967        C968   1.416       .  A
C968       Br969   1.940       .  S
C973        C974   1.419       .  A
C973        C978   1.405       .  A
C973       Br980   1.924       .  S
C974        C975   1.432       .  A
C975        C976   1.412       .  A
C975       Br982   1.941       .  S
C976        C977   1.409       .  A
C976       Br981   1.937       .  S
C977        C978   1.401       .  A
C978       Br979   1.933       .  S
C983        C984   1.427       .  A
C983        C988   1.400       .  A
C983       Br990   1.921       .  S
C984        C985   1.422       .  A
C985        C986   1.409       .  A
C985       Br992   1.930       .  S
C986        C987   1.412       .  A
C986       Br991   1.911       .  S
C987        C988   1.402       .  A
C988       Br989   1.933       .  S
C993        C994   1.411       .  A
C993        C998   1.430   1_565  A
C993      Br1000   1.930       .  S
C994        C995   1.421       .  A
C995        C996   1.413   1_565  A
C995      Br1002   1.930       .  S
C996        C997   1.424       .  A
C996      Br1001   1.916       .  S
C997        C998   1.435       .  A
C998       Br999   1.911       .  S
C1003      C1004   1.428       .  A
C1003      C1008   1.415   1_554  A
C1003     Br1010   1.917       .  S
C1004      C1005   1.431       .  A
C1005      C1006   1.423   1_554  A
C1005     Br1012   1.909       .  S
C1006      C1007   1.406       .  A
C1006     Br1011   1.921       .  S
C1007      C1008   1.410       .  A
C1008     Br1009   1.936       .  S
C1013      C1014   1.404       .  A
C1013      C1018   1.408       .  A
C1013     Br1020   1.920       .  S
C1014      C1015   1.399       .  A
C1015      C1016   1.404       .  A
C1015     Br1022   1.931       .  S
C1016      C1017   1.421       .  A
C1016     Br1021   1.921       .  S
C1017      C1018   1.412       .  A
C1018     Br1019   1.917       .  S
C1023      C1024   1.419       .  A
C1023      C1028   1.410       .  A
C1023     Br1030   1.908       .  S
C1024      C1025   1.425       .  A
C1025      C1026   1.403       .  A
C1025     Br1032   1.896       .  S
C1026      C1027   1.390       .  A
C1026     Br1031   1.939       .  S
C1027      C1028   1.400       .  A
C1028     Br1029   1.926       .  S
C1033      C1034   1.416       .  A
C1033      C1038   1.407       .  A
C1033     Br1040   1.901       .  S
C1034      C1035   1.426       .  A
C1035      C1036   1.408       .  A
C1035     Br1042   1.900       .  S
C1036      C1037   1.399       .  A
C1036     Br1041   1.941       .  S
C1037      C1038   1.403       .  A
C1038     Br1039   1.932       .  S
C1043      C1044   1.404       .  A
C1043      C1048   1.411       .  A
C1043     Br1050   1.917       .  S
C1044      C1045   1.412       .  A
C1045      C1046   1.413       .  A
C1045     Br1052   1.903       .  S
C1046      C1047   1.423       .  A
C1046     Br1051   1.935       .  S
C1047      C1048   1.426       .  A
C1048     Br1049   1.930       .  S
C1053      C1054   1.407       .  A
C1053      C1058   1.407       .  A
C1053     Br1060   1.919       .  S
C1054      C1055   1.410       .  A
C1055      C1056   1.408       .  A
C1055     Br1062   1.904       .  S
C1056      C1057   1.422       .  A
C1056     Br1061   1.937       .  S
C1057      C1058   1.424       .  A
C1058     Br1059   1.931       .  S
C1063      C1064   1.402       .  A
C1063      C1068   1.414       .  A
C1063     Br1070   1.940       .  S
C1064      C1065   1.408       .  A
C1065      C1066   1.417       .  A
C1065     Br1072   1.934       .  S
C1066      C1067   1.421       .  A
C1066     Br1071   1.897       .  S
C1067      C1068   1.427       .  A
C1068     Br1069   1.897       .  S
C1073      C1074   1.413       .  A
C1073      C1078   1.408       .  A
C1073     Br1080   1.892       .  S
C1074      C1075   1.427       .  A
C1075      C1076   1.414       .  A
C1075     Br1082   1.914       .  S
C1076      C1077   1.401       .  A
C1076     Br1081   1.931       .  S
C1077      C1078   1.399       .  A
C1078     Br1079   1.924       .  S
C1083      C1084   1.400       .  A
C1083      C1088   1.409       .  A
C1083     Br1090   1.925       .  S
C1084      C1085   1.391       .  A
C1085      C1086   1.405       .  A
C1085     Br1092   1.938       .  S
C1086      C1087   1.427       .  A
C1086     Br1091   1.901       .  S
C1087      C1088   1.416       .  A
C1088     Br1089   1.903       .  S
C1093      C1094   1.420       .  A
C1093      C1098   1.430   1_565  A
C1093     Br1100   1.914       .  S
C1094      C1095   1.417       .  A
C1095      C1096   1.424   1_565  A
C1095     Br1102   1.932       .  S
C1096      C1097   1.420       .  A
C1096     Br1101   1.910       .  S
C1097      C1098   1.423       .  A
C1098     Br1099   1.915       .  S
C1103      C1104   1.412       .  A
C1103      C1108   1.421       .  A
C1103     Br1110   1.938       .  S
C1104      C1105   1.401       .  A
C1105      C1106   1.412       .  A
C1105     Br1112   1.941       .  S
C1106      C1107   1.429       .  A
C1106     Br1111   1.908       .  S
C1107      C1108   1.434       .  A
C1108     Br1109   1.927       .  S
C1113      C1114   1.407       .  A
C1113      C1118   1.395       .  A
C1113     Br1120   1.904       .  S
C1114      C1115   1.424       .  A
C1115      C1116   1.419       .  A
C1115     Br1122   1.914       .  S
C1116      C1117   1.408       .  A
C1116     Br1121   1.926       .  S
C1117      C1118   1.400       .  A
C1118     Br1119   1.912       .  S
C1123      C1124   1.425       .  A
C1123      C1128   1.416       .  A
C1123     Br1130   1.935       .  S
C1124      C1125   1.415       .  A
C1125      C1126   1.400       .  A
C1125     Br1132   1.900       .  S
C1126      C1127   1.401       .  A
C1126     Br1131   1.938       .  S
C1127      C1128   1.405       .  A
C1128     Br1129   1.928       .  S
C1133      C1134   1.410       .  A
C1133      C1138   1.406       .  A
C1133     Br1140   1.912       .  S
C1134      C1135   1.426       .  A
C1135      C1136   1.411       .  A
C1135     Br1142   1.913       .  S
C1136      C1137   1.399       .  A
C1136     Br1141   1.932       .  S
C1137      C1138   1.403       .  A
C1138     Br1139   1.921       .  S
C1143      C1144   1.440       .  A
C1143      C1148   1.447   1_655  A
C1143     Br1150   1.923       .  S
C1144      C1145   1.413       .  A
C1145      C1146   1.402   1_655  A
C1145     Br1152   1.882       .  S
C1146      C1147   1.396       .  A
C1146     Br1151   1.908       .  S
C1147      C1148   1.436       .  A
C1148     Br1149   1.920       .  S
C1153      C1154   1.412       .  A
C1153      C1158   1.402       .  A
C1153     Br1160   1.905       .  S
C1154      C1155   1.426       .  A
C1155      C1156   1.415       .  A
C1155     Br1162   1.942       .  S
C1156      C1157   1.405       .  A
C1156     Br1161   1.929       .  S
C1157      C1158   1.402       .  A
C1158     Br1159   1.933       .  S
C1163      C1164   1.438       .  A
C1163      C1168   1.412       .  A
C1163     Br1170   1.894       .  S
C1164      C1165   1.434       .  A
C1165      C1166   1.415       .  A
C1165     Br1172   1.899       .  S
C1166      C1167   1.392       .  A
C1166     Br1171   1.936       .  S
C1167      C1168   1.392       .  A
C1168     Br1169   1.946       .  S
C1173      C1174   1.426       .  A
C1173      C1178   1.421       .  A
C1173     Br1180   1.909       .  S
C1174      C1175   1.409       .  A
C1175      C1176   1.398       .  A
C1175     Br1182   1.916       .  S
C1176      C1177   1.401       .  A
C1176     Br1181   1.918       .  S
C1177      C1178   1.407       .  A
C1178     Br1179   1.929       .  S
C1183      C1184   1.396       .  A
C1183      C1188   1.408       .  A
C1183     Br1190   1.941       .  S
C1184      C1185   1.398       .  A
C1185      C1186   1.419       .  A
C1185     Br1192   1.936       .  S
C1186      C1187   1.435       .  A
C1186     Br1191   1.910       .  S
C1187      C1188   1.423       .  A
C1188     Br1189   1.879       .  S
C1193      C1194   1.419       .  A
C1193      C1198   1.433   1_565  A
C1193     Br1200   1.912       .  S
C1194      C1195   1.415       .  A
C1195      C1196   1.418   1_565  A
C1195     Br1202   1.925       .  S
C1196      C1197   1.420       .  A
C1196     Br1201   1.909       .  S
C1197      C1198   1.434       .  A
C1198     Br1199   1.921       .  S
C1203      C1204   1.426       .  A
C1203      C1208   1.413   1_455  A
C1203     Br1210   1.878       .  S
C1204      C1205   1.447       .  A
C1205      C1206   1.450   1_455  A
C1205     Br1212   1.911       .  S
C1206      C1207   1.436       .  A
C1206     Br1211   1.934       .  S
C1207      C1208   1.407       .  A
C1208     Br1209   1.911       .  S
