geometry optimzed in LAMMPS
_audit_creation_date              2020-11-30 
_audit_creation_method            'lammps2cif' 
_symmetry_space_group_name_H-M    'P1' 
_symmetry_Int_Tables_number       1 
_symmetry_cell_setting            triclinic 
loop_ 
_symmetry_equiv_pos_as_xyz 
  x,y,z 
_cell_length_a                    26.04403309 
_cell_length_b                    26.029846463278492 
_cell_length_c                    25.98331022483651 
_cell_angle_alpha                 90.16461758130444 
_cell_angle_beta                  89.96936960346994 
_cell_angle_gamma                 89.98818663226756 
loop_ 
_atom_site_label 
_atom_site_type_symbol 
_atom_site_fract_x 
_atom_site_fract_y 
_atom_site_fract_z 
_atom_site_charge 
C1          C  0.82814354  0.76862591  0.83085111     0.80700
N2          N  0.84855449  0.79358267  0.79005093    -0.77600
C3          C  0.83001304  0.83998417  0.77538960     0.83200
N4          N  0.78973463  0.86074315  0.80137294    -0.77500
C5          C  0.76886122  0.83611426  0.84247839     0.83300
N6          N  0.78871995  0.79027096  0.85710130    -0.79300
C7          C  0.84094483  0.54668962  0.27662725     0.80700
N8          N  0.79804867  0.52783921  0.29967452    -0.77600
C9          C  0.77773193  0.55189226  0.34148314     0.83200
N10         N  0.79985786  0.59543458  0.35972778    -0.77500
C11         C  0.84289116  0.61445392  0.33742673     0.83300
N12         N  0.86296861  0.58990584  0.29603529    -0.79300
Zn13       Zn  0.96347737  0.50924894  0.97689955     1.49700
Zn14       Zn  0.90380214  0.40189279  0.98696826     1.49400
Zn15       Zn  0.91289330  0.45969298  0.87886456     1.49100
Zn16       Zn  0.01151849  0.40925296  0.92644831     1.49500
O17         O  0.94782972  0.44475098  0.94264884    -1.83600
O18         O  0.93426944  0.50924755  0.04748442    -0.74300
O19         O  0.83411938  0.38957287  0.95450496    -0.74100
O20         O  0.90041799  0.53486088  0.86949713    -0.73600
O21         O  0.89333262  0.43526811  0.05665047    -0.74300
O22         O  0.93302893  0.56980996  0.94023069    -0.73900
O23         O  0.84459164  0.42677900  0.87880235    -0.74500
O24         O  0.02233173  0.40069157  0.85007661    -0.73900
O25         O  0.93609941  0.33232993  0.99794859    -0.74600
O26         O  0.95060634  0.43293039  0.81760971    -0.74000
O27         O  0.01004586  0.33877700  0.95606328    -0.74500
O28         O  0.07217777  0.44609831  0.95618152    -0.74400
O29         O  0.03934942  0.51917173  0.98551971    -0.74200
C30         C  0.90803902  0.47842009  0.07466627     0.77600
C31         C  0.81720321  0.40137346  0.91009158     0.78100
C32         C  0.90906423  0.57381504  0.89779941     0.77100
C33         C  0.99368263  0.41072931  0.81176125     0.77500
C34         C  0.97842861  0.31293379  0.98282391     0.78600
C35         C  0.07761183  0.48982512  0.97751564     0.77600
C36         C  0.55574858  0.33567879  0.77428288     0.80700
N37         N  0.59811899  0.35420233  0.79782277    -0.77600
C38         C  0.61669130  0.33237075  0.84133981     0.83200
N39         N  0.59200239  0.29095714  0.86139602    -0.77500
C40         C  0.54908045  0.27211348  0.83815851     0.83300
N41         N  0.53117513  0.29472214  0.79470918    -0.79300
Zn42       Zn  0.38067193  0.90584017  0.92709980     1.49700
Zn43       Zn  0.42080665  0.00619553  0.98406076     1.49400
Zn44       Zn  0.48493303  0.90172656  0.99173063     1.49100
Zn45       Zn  0.47953053  0.96410598  0.88631604     1.49500
O46         O  0.44156177  0.94428031  0.94743849    -1.83600
O47         O  0.31573842  0.93791526  0.95419795    -0.74300
O48         O  0.44643394  0.00492683  0.05621746    -0.74100
O49         O  0.45654400  0.83002771  0.99831206    -0.73600
O50         O  0.34442788  0.01099633  0.98776136    -0.74300
O51         O  0.38442217  0.83373338  0.95324059    -0.73900
O52         O  0.49018496  0.93222374  0.06276594    -0.74500
O53         O  0.55159327  0.93850326  0.88925708    -0.73900
O54         O  0.44785181  0.07084088  0.95144886    -0.74600
O55         O  0.55648472  0.89570861  0.96287216    -0.74000
O56         O  0.48403601  0.04028372  0.88039522    -0.74500
O57         O  0.44716396  0.93681398  0.82170481    -0.74400
O58         O  0.37485250  0.90175735  0.85029457    -0.74200
C59         C  0.30770914  0.98084230  0.97627700     0.77600
C60         C  0.47315768  0.97371946  0.08249446     0.78100
C61         C  0.41612640  0.80878316  0.98083329     0.77100
C62         C  0.57697825  0.91221839  0.92160362     0.77500
C63         C  0.47161445  0.07778283  0.90929450     0.78600
C64         C  0.40464986  0.91418907  0.81358173     0.77600
C65         C  0.05123640  0.04828947  0.11575693     0.80700
N66         N  0.09259754  0.02806138  0.09132280    -0.77600
C67         C  0.11018771  0.04978822  0.04736042     0.83200
N68         N  0.08609597  0.09162059  0.02814055    -0.77500
C69         C  0.04468538  0.11238034  0.05215000     0.83300
N70         N  0.02788678  0.09083041  0.09664465    -0.79300
C71         C  0.27814403  0.83943012  0.55002812     0.80700
N72         N  0.29988831  0.79578319  0.53152116    -0.77600
C73         C  0.34454330  0.77801187  0.55160144     0.83200
N74         N  0.36657341  0.80292317  0.59195336    -0.77500
C75         C  0.34459859  0.84627000  0.61131315     0.83300
N76         N  0.30044874  0.86400947  0.59016187    -0.79300
Zn77       Zn  0.96154096  0.88213688  0.48634403     1.49700
Zn78       Zn  0.91398463  0.92553401  0.38298941     1.49400
Zn79       Zn  0.89965343  0.98770922  0.48908442     1.49100
Zn80       Zn  0.00913639  0.98057093  0.43307841     1.49500
O81         O  0.94585389  0.94416836  0.44805643    -1.83600
O82         O  0.93295428  0.81947192  0.45177134    -0.74300
O83         O  0.84380795  0.95583670  0.37852936    -0.74100
O84         O  0.88303432  0.95613999  0.55780153    -0.73600
O85         O  0.90617823  0.84942319  0.37639621    -0.74300
O86         O  0.93036079  0.88527274  0.55632995    -0.73900
O87         O  0.83326125  0.99906474  0.45154407    -0.74500
O88         O  0.00716813  0.05037909  0.46336664    -0.73900
O89         O  0.95313285  0.95199993  0.32196792    -0.74600
O90         O  0.93156834  0.05696158  0.50262174    -0.74000
O91         O  0.01975845  0.99114406  0.35747646    -0.74500
O92         O  0.07032777  0.94397158  0.46146084    -0.74400
O93         O  0.03763006  0.87261585  0.49480318    -0.74200
C94         C  0.91331781  0.81249090  0.40752590     0.77600
C95         C  0.81670004  0.98402666  0.40795305     0.78100
C96         C  0.89942289  0.91545771  0.57925757     0.77100
C97         C  0.97460366  0.07591984  0.48931208     0.77500
C98         C  0.99403418  0.97837533  0.31792336     0.78600
C99         C  0.07587643  0.90104592  0.48403739     0.77600
C100        C  0.54933703  0.04428600  0.27867568     0.80700
N101        N  0.59632213  0.02895569  0.29508029    -0.77600
C102        C  0.62028138  0.05400858  0.33404019     0.83200
N103        N  0.59734920  0.09508090  0.35639994    -0.77500
C104        C  0.55068777  0.11147023  0.34023943     0.83300
N105        N  0.52706298  0.08590710  0.30123998    -0.79300
C106        C  0.11144380  0.33825788  0.54127036     0.80700
N107        N  0.09295856  0.35987327  0.58513595    -0.77600
C108        C  0.04988283  0.34212172  0.60794073     0.83200
N109        N  0.02488467  0.30176460  0.58675779    -0.77500
C110        C  0.04243690  0.27920674  0.54296560     0.83300
N111        N  0.08634191  0.29718441  0.52067046    -0.79300
C112        C  0.34736844  0.60774020  0.04447306     0.80700
N113        N  0.36732477  0.58669326  0.08786872    -0.77600
C114        C  0.34338788  0.54705046  0.11195388     0.83200
N115        N  0.29913065  0.52797238  0.09194251    -0.77500
C116        C  0.27884315  0.54870584  0.04867040     0.83300
N117        N  0.30265617  0.58882755  0.02575352    -0.79300
Zn118      Zn  0.51008828  0.40880856  0.46266418     1.49700
Zn119      Zn  0.40329759  0.40043378  0.40155298     1.49400
Zn120      Zn  0.41038765  0.46151064  0.50886929     1.49100
Zn121      Zn  0.46299664  0.50829071  0.41088994     1.49500
O122        O  0.44658960  0.44443074  0.44571075    -1.83600
O123        O  0.51026069  0.33803067  0.43222689    -0.74300
O124        O  0.33388616  0.38785603  0.43467545    -0.74100
O125        O  0.44604834  0.43445410  0.57135953    -0.73600
O126        O  0.43661958  0.33123850  0.38987689    -0.74300
O127        O  0.51718176  0.40018980  0.53904603    -0.73900
O128        O  0.34157931  0.43008540  0.50828323    -0.74500
O129        O  0.43633908  0.57089089  0.44832975    -0.73900
O130        O  0.39217819  0.43324308  0.33179732    -0.74600
O131        O  0.39922032  0.53726208  0.51728081    -0.74000
O132        O  0.43275877  0.50760524  0.34056007    -0.74500
O133        O  0.53860066  0.51644936  0.40153899    -0.74400
O134        O  0.57227239  0.44626606  0.43570983    -0.74200
C135        C  0.47918590  0.31220989  0.40459411     0.77600
C136        C  0.31551205  0.40230743  0.47785151     0.78100
C137        C  0.48837378  0.41090630  0.57719616     0.77100
C138        C  0.41112683  0.57593646  0.48999828     0.77500
C139        C  0.40643510  0.47635697  0.31361386     0.78600
C140        C  0.57738509  0.48891806  0.41235903     0.77600
C141        C  0.35131338  0.47750761  0.17730567    -0.11800
C142        C  0.36219897  0.52817298  0.16225785     0.05200
C143        C  0.38917300  0.56052703  0.19656954    -0.07100
C144        C  0.40399754  0.54212549  0.24467813    -0.07800
C145        C  0.39209422  0.49192075  0.26052130    -0.02400
C146        C  0.36613373  0.45909820  0.22574379     0.04500
N147        N  0.35496384  0.40693213  0.23852314     0.67000
H148        H  0.33117927  0.45190036  0.15129063     0.15900
H149        H  0.42366321  0.56834828  0.27043368     0.15600
N150        N  0.39914464  0.61323651  0.18478750     0.74700
O151        O  0.31078641  0.39501975  0.25447284    -0.38800
O152        O  0.38615043  0.37197074  0.22597097    -0.38700
O153        O  0.36323562  0.64567938  0.18776225    -0.39400
O154        O  0.44488453  0.62863234  0.18049023    -0.39500
C155        C  0.19082826  0.38931862  0.55280616    -0.11800
C156        C  0.16208397  0.35605292  0.52138951     0.05200
C157        C  0.18416753  0.33907347  0.47455119    -0.07100
C158        C  0.23411205  0.35431315  0.46127169    -0.07800
C159        C  0.26293347  0.38673417  0.49343290    -0.02400
C160        C  0.24040557  0.40433544  0.53980563     0.04500
N161        N  0.26728422  0.43679899  0.57514405     0.67000
H162        H  0.17559031  0.40309987  0.58910866     0.15900
H163        H  0.25010276  0.34103407  0.42509376     0.15600
N164        N  0.15607283  0.30848165  0.43869330     0.74700
O165        O  0.25164284  0.48208941  0.58252934    -0.38800
O166        O  0.29796790  0.41696053  0.60696402    -0.38700
O167        O  0.12181489  0.32976758  0.41189267    -0.39400
O168        O  0.17457903  0.26610393  0.42393541    -0.39500
C169        C  0.53073551  0.23325279  0.41914511    -0.11800
C170        C  0.49353665  0.25902603  0.38981615     0.05200
C171        C  0.47214565  0.23382388  0.34667735    -0.07100
C172        C  0.48965397  0.18490612  0.33263064    -0.07800
C173        C  0.52851088  0.16001366  0.36070264    -0.02400
C174        C  0.54805800  0.18429834  0.40535159     0.04500
N175        N  0.58543704  0.15997682  0.43737052     0.67000
H176        H  0.54681686  0.25126404  0.45316004     0.15900
H177        H  0.47397554  0.16736132  0.29820424     0.15600
N178        N  0.43490864  0.25844171  0.31479635     0.74700
O179        O  0.63194899  0.17325697  0.43447626    -0.38800
O180        O  0.57095382  0.13130141  0.47365533    -0.38700
O181        O  0.44949333  0.28390013  0.27621440    -0.39400
O182        O  0.38797908  0.24755873  0.31992231    -0.39500
C183        C  0.01275414  0.15900958  0.46551069    -0.11800
C184        C  0.98732230  0.12929918  0.50243080     0.05200
C185        C  0.97476792  0.15115068  0.55031163    -0.07100
C186        C  0.99058094  0.20122616  0.56155220    -0.07800
C187        C  0.01852245  0.23044526  0.52551374    -0.02400
C188        C  0.02713085  0.20975397  0.47588084     0.04500
N189        N  0.04725785  0.24037053  0.43480536     0.67000
H190        H  0.02009135  0.14300585  0.42765971     0.15900
H191        H  0.98307228  0.21612732  0.59978767     0.15600
N192        N  0.94945499  0.12181365  0.58923067     0.74700
O193        O  0.07555403  0.22000834  0.40093423    -0.38800
O194        O  0.02798485  0.28401293  0.42625995    -0.38700
O195        O  0.97439507  0.08895928  0.61463779    -0.39400
O196        O  0.90446630  0.13356556  0.60294162    -0.39500
C197        C  0.75623039  0.00244127  0.33666937    -0.11800
C198        C  0.76558997  0.00076077  0.38989094     0.05200
C199        C  0.72701543  0.01751801  0.42420997    -0.07100
C200        C  0.68048599  0.03588862  0.40491228    -0.07800
C201        C  0.67114981  0.03728083  0.35181587    -0.02400
C202        C  0.70980980  0.02123860  0.31713757     0.04500
N203        N  0.70396951  0.02666946  0.26239229     0.67000
H204        H  0.78609122  0.99114497  0.30990072     0.15900
H205        H  0.65078444  0.04760283  0.43171708     0.15600
N206        N  0.73337041  0.01370871  0.47870569     0.74700
O207        O  0.68622184  0.06781946  0.24391820    -0.38800
O208        O  0.72377891  0.99402900  0.23232047    -0.38700
O209        O  0.73373233  0.05383102  0.50607597    -0.39400
O210        O  0.73104478  0.97027909  0.50001195    -0.39500
C211        C  0.19244574  0.81901096  0.51352640    -0.11800
C212        C  0.22734525  0.85623888  0.53118574     0.05200
C213        C  0.21196941  0.90827077  0.53276297    -0.07100
C214        C  0.16292879  0.92207364  0.51592662    -0.07800
C215        C  0.12791139  0.88474371  0.49903611    -0.02400
C216        C  0.14288425  0.83271949  0.49813441     0.04500
N217        N  0.10852016  0.79346912  0.48092981     0.67000
H218        H  0.20322524  0.77881413  0.51265344     0.15900
H219        H  0.15169822  0.96214133  0.51742561     0.15600
N220        N  0.24550918  0.94761470  0.55136716     0.74700
O221        O  0.10336426  0.78485285  0.43340286    -0.38800
O222        O  0.08818029  0.76350682  0.51313048    -0.38700
O223        O  0.27041278  0.97461629  0.51977256    -0.39400
O224        O  0.24260680  0.96168846  0.59780408    -0.39500
C225        C  0.33082673  0.68495534  0.54392316    -0.11800
C226        C  0.36313863  0.72710526  0.53594191     0.05200
C227        C  0.41201126  0.71954887  0.51412735    -0.07100
C228        C  0.42719829  0.66998269  0.49912814    -0.07800
C229        C  0.39454007  0.62765048  0.50663778    -0.02400
C230        C  0.34617078  0.63545175  0.52995784     0.04500
N231        N  0.31161724  0.59374043  0.53872599     0.67000
H232        H  0.29333921  0.69054041  0.56120919     0.15900
H233        H  0.46458694  0.66454090  0.48164442     0.15600
N234        N  0.44581674  0.76193560  0.50565216     0.74700
O235        O  0.30040597  0.58125252  0.58424823    -0.38800
O236        O  0.28605670  0.57540812  0.50174065    -0.38700
O237        O  0.48782415  0.76458766  0.52968236    -0.39400
O238        O  0.43634984  0.79364113  0.47025558    -0.39500
C239        C  0.99302211  0.96913470  0.22241975    -0.11800
C240        C  0.01098448  0.99543157  0.26627234     0.05200
C241        C  0.04321414  0.03871549  0.25961084    -0.07100
C242        C  0.05554207  0.05536866  0.21002665    -0.07800
C243        C  0.03713249  0.02922895  0.16673902    -0.02400
C244        C  0.00641777  0.98539464  0.17289889     0.04500
N245        N  0.98837081  0.95732773  0.12919476     0.67000
H246        H  0.96873785  0.93562663  0.22651050     0.15900
H247        H  0.07959635  0.08898588  0.20526495     0.15600
N248        N  0.06257585  0.06717167  0.30254626     0.74700
O249        O  0.01561875  0.92194145  0.11021173    -0.38800
O250        O  0.94285695  0.96339464  0.11376097    -0.38700
O251        O  0.10858076  0.06113172  0.31649983    -0.39400
O252        O  0.03669532  0.10391929  0.32084546    -0.39500
C253        C  0.36518427  0.72951849  0.96575364    -0.11800
C254        C  0.40443277  0.75438284  0.99321484     0.05200
C255        C  0.42935369  0.72746302  0.03320337    -0.07100
C256        C  0.41204424  0.67857664  0.04734420    -0.07800
C257        C  0.37026687  0.65517491  0.02221217    -0.02400
C258        C  0.34836474  0.68044645  0.97929980     0.04500
N259        N  0.30835519  0.65756734  0.94935679     0.67000
H260        H  0.34659867  0.74855172  0.93374870     0.15900
H261        H  0.43046446  0.65981515  0.07952918     0.15600
N262        N  0.47063963  0.74994924  0.06160260     0.74700
O263        O  0.26309825  0.67458431  0.95275366    -0.38800
O264        O  0.31962162  0.62621755  0.91397792    -0.38700
O265        O  0.46170338  0.77190582  0.10402971    -0.39400
O266        O  0.51640682  0.74091062  0.04842821    -0.39500
C267        C  0.48328703  0.04510329  0.20970091    -0.11800
C268        C  0.52508678  0.02002715  0.23285794     0.05200
C269        C  0.54527702  0.97540552  0.20881194    -0.07100
C270        C  0.52637142  0.96000144  0.16074137    -0.07800
C271        C  0.48675576  0.98712823  0.13626879    -0.02400
C272        C  0.46379371  0.02897131  0.16231548     0.04500
N273        N  0.42112904  0.05619394  0.14100793     0.67000
H274        H  0.46616105  0.07860617  0.22762184     0.15900
H275        H  0.54363657  0.92697427  0.14206177     0.15600
N276        N  0.58488552  0.94522183  0.23220697     0.74700
O277        O  0.37667033  0.03710682  0.14363565    -0.38800
O278        O  0.42671815  0.10192639  0.12601232    -0.38700
O279        O  0.57675658  0.92398744  0.27505887    -0.39400
O280        O  0.62409176  0.93268487  0.20648474    -0.39500
C281        C  0.42740685  0.88218330  0.72638435    -0.11800
C282        C  0.38997374  0.90100266  0.76046324     0.05200
C283        C  0.33870865  0.90504702  0.74382226    -0.07100
C284        C  0.32549548  0.88931242  0.69420701    -0.07800
C285        C  0.36243237  0.86860517  0.66054054    -0.02400
C286        C  0.41404959  0.86573966  0.67675793     0.04500
N287        N  0.45329240  0.84663030  0.64330257     0.67000
H288        H  0.46702345  0.87917841  0.73872051     0.15900
H289        H  0.28556963  0.89167444  0.68279058     0.15600
N290        N  0.29962942  0.92536472  0.77675890     0.74700
O291        O  0.46784495  0.87320039  0.60546146    -0.38800
O292        O  0.47746193  0.80627070  0.65490077    -0.38700
O293        O  0.28914020  0.97266074  0.77524123    -0.39400
O294        O  0.27012287  0.89514377  0.80050068    -0.39500
C295        C  0.16903101  0.97914192  0.02156042    -0.11800
C296        C  0.15864863  0.03195366  0.02423564     0.05200
C297        C  0.19610399  0.06726642  0.00731861    -0.07100
C298        C  0.24371917  0.04945971  0.99042473    -0.07800
C299        C  0.25495984  0.99679054  0.98944571    -0.02400
C300        C  0.21658342  0.96126950  0.00375837     0.04500
N301        N  0.22609733  0.90721017  0.00299621     0.67000
H302        H  0.14041080  0.95169004  0.03412407     0.15900
H303        H  0.27254977  0.07723207  0.97908094     0.15600
N304        N  0.18783975  0.12149601  0.01030024     0.74700
O305        O  0.24723678  0.88604087  0.04112830    -0.38800
O306        O  0.20672640  0.87977896  0.96791346    -0.38700
O307        O  0.19808285  0.14516289  0.05148210    -0.39400
O308        O  0.17987494  0.14662982  0.96962677    -0.39500
C309        C  0.52161864  0.21484325  0.90975291    -0.11800
C310        C  0.52515849  0.22425268  0.85669504     0.05200
C311        C  0.50732980  0.18670939  0.82168737    -0.07100
C312        C  0.48843160  0.14011969  0.83997102    -0.07800
C313        C  0.48604698  0.13000978  0.89285752    -0.02400
C314        C  0.50144653  0.16841879  0.92808999     0.04500
N315        N  0.49911582  0.15999646  0.98236165     0.67000
H316        H  0.53479244  0.24349982  0.93703109     0.15900
H317        H  0.47653631  0.11114824  0.81241794     0.15600
N318        N  0.51124755  0.19379277  0.76729003     0.74700
O319        O  0.53846809  0.14468350  0.00610665    -0.38800
O320        O  0.46023142  0.17463299  0.00741909    -0.38700
O321        O  0.55119328  0.17931039  0.74388471    -0.39400
O322        O  0.47211395  0.20685487  0.74187454    -0.39500
C323        C  0.48630057  0.36092111  0.71428870    -0.11800
C324        C  0.53896289  0.35724000  0.72470976     0.05200
C325        C  0.57471949  0.37372944  0.68728265    -0.07100
C326        C  0.55718563  0.39227203  0.64005554    -0.07800
C327        C  0.50457078  0.39486486  0.62911086    -0.02400
C328        C  0.46884463  0.37992730  0.66714035     0.04500
N329        N  0.41481599  0.38195319  0.65789581     0.67000
H330        H  0.45852209  0.34876313  0.74281152     0.15900
H331        H  0.58502756  0.40372738  0.61130174     0.15600
N332        N  0.62893030  0.36943635  0.69533362     0.74700
O333        O  0.39284672  0.34485643  0.63561846    -0.38800
O334        O  0.38813603  0.41625575  0.67951634    -0.38700
O335        O  0.64934046  0.32562550  0.69911893    -0.39400
O336        O  0.65715569  0.40856271  0.69067880    -0.39500
C337        C  0.16632695  0.46774669  0.00487335    -0.11800
C338        C  0.12934789  0.50580993  0.99469031     0.05200
C339        C  0.14220138  0.55792465  0.00294443    -0.07100
C340        C  0.19140823  0.57087190  0.01991725    -0.07800
C341        C  0.22796322  0.53277545  0.03031992    -0.02400
C342        C  0.21506856  0.48080108  0.02328829     0.04500
N343        N  0.25141610  0.44099792  0.03349585     0.67000
H344        H  0.15713049  0.42750346  0.99949438     0.15900
H345        H  0.20085188  0.61100552  0.02580520     0.15600
N346        N  0.10604150  0.59823874  0.99402173     0.74700
O347        O  0.25156780  0.41928863  0.07685265    -0.38800
O348        O  0.27705574  0.42189061  0.99694386    -0.38700
O349        O  0.08407785  0.61965896  0.03170288    -0.39400
O350        O  0.10226047  0.61768998  0.94976625    -0.39500
C351        C  0.97069341  0.38302744  0.72338967    -0.11800
C352        C  0.00923718  0.39482164  0.75938328     0.05200
C353        C  0.06119653  0.38979771  0.74478596    -0.07100
C354        C  0.07351697  0.37421904  0.69470096    -0.07800
C355        C  0.03488618  0.36178826  0.65905031    -0.02400
C356        C  0.98306411  0.36584538  0.67391834     0.04500
N357        N  0.94253885  0.35308904  0.63911614     0.67000
H358        H  0.93056696  0.38598253  0.73403282     0.14700
H359        H  0.11359606  0.37041705  0.68413851     0.15600
N360        N  0.10187326  0.40042366  0.78015321     0.74700
O361        O  0.92129662  0.30961011  0.64181759    -0.38800
O362        O  0.92291072  0.38762102  0.61140892    -0.38700
O363        O  0.12334800  0.36389836  0.80364433    -0.39400
O364        O  0.12162268  0.44465843  0.78157855    -0.39500
C365        C  0.96686369  0.23624189  0.03909304    -0.11800
C366        C  0.99178614  0.25955047  0.99725748     0.05200
C367        C  0.03069821  0.23203577  0.97121745    -0.07100
C368        C  0.04554407  0.18373088  0.98880007    -0.07800
C369        C  0.02260034  0.16121764  0.03225268    -0.02400
C370        C  0.98169047  0.18757312  0.05664838     0.04500
N371        N  0.95506870  0.16607767  0.09957826     0.67000
H372        H  0.93644812  0.25636354  0.05924941     0.15900
H373        H  0.07598226  0.16417964  0.96822345     0.15600
N374        N  0.05565685  0.25235412  0.92664082     0.74700
O375        O  0.96536776  0.18132145  0.14454620    -0.38800
O376        O  0.91613707  0.13821454  0.09203438    -0.38700
O377        O  0.10183771  0.26678450  0.92935560    -0.39400
O378        O  0.03393901  0.24946046  0.88332670    -0.39500
C379        C  0.73518853  0.35352054  0.92595202    -0.11800
C380        C  0.76497659  0.38521777  0.89377988     0.05200
C381        C  0.74451869  0.40021013  0.84571447    -0.07100
C382        C  0.69614611  0.38326653  0.83066424    -0.07800
C383        C  0.66659500  0.35080653  0.86208349    -0.02400
C384        C  0.68647429  0.33615892  0.91045216     0.04500
N385        N  0.65786371  0.30413915  0.94461206     0.67000
H386        H  0.74971617  0.34172541  0.96275788     0.15900
H387        H  0.68255170  0.39510096  0.79382013     0.15600
N388        N  0.77229019  0.43225211  0.81077598     0.74700
O389        O  0.66576702  0.25631037  0.94486611    -0.38800
O390        O  0.63139520  0.32430915  0.97998161    -0.38700
O391        O  0.79621379  0.41222032  0.77353518    -0.39400
O392        O  0.76609797  0.48031395  0.81226521    -0.39500
C393        C  0.89866141  0.55244533  0.20065230    -0.11800
C394        C  0.86053339  0.52499126  0.22723324     0.05200
C395        C  0.84064043  0.47983013  0.20427181    -0.07100
C396        C  0.85748961  0.46464637  0.15525832    -0.07800
C397        C  0.89391094  0.49364478  0.12794963    -0.02400
C398        C  0.91520996  0.53762976  0.15181101     0.04500
N399        N  0.95341452  0.56834009  0.12703866     0.67000
H400        H  0.91538620  0.58672454  0.21712293     0.15900
H401        H  0.84101072  0.43042260  0.13814011     0.15600
N402        N  0.80340380  0.44874457  0.22983569     0.74700
O403        O  0.94034885  0.60890638  0.10400127    -0.38800
O404        O  0.00033550  0.55969095  0.13544566    -0.38700
O405        O  0.75632506  0.45521447  0.22038227    -0.39400
O406        O  0.81777240  0.40865667  0.25289729    -0.39500
C407        C  0.85600497  0.67888674  0.40705651    -0.11800
C408        C  0.86502637  0.66358087  0.35589836     0.05200
C409        C  0.89301423  0.69672820  0.32311282    -0.07100
C410        C  0.90883150  0.74478113  0.34108046    -0.07800
C411        C  0.89824994  0.76048416  0.39150669    -0.02400
C412        C  0.87250104  0.72680750  0.42509609     0.04500
N413        N  0.86023126  0.74186000  0.47663443     0.67000
H414        H  0.83508330  0.65398987  0.43300753     0.15900
H415        H  0.92921427  0.77023751  0.31520751     0.15600
N416        N  0.90439660  0.68329464  0.27098718     0.74700
O417        O  0.82441725  0.77353194  0.48476061    -0.38800
O418        O  0.88092946  0.71909782  0.51408246    -0.38700
O419        O  0.87149106  0.69159988  0.23636462    -0.39400
O420        O  0.95018630  0.67357452  0.25836464    -0.39500
C421        C  0.68816248  0.57159448  0.36489031    -0.11800
C422        C  0.72793872  0.53549777  0.36234783     0.05200
C423        C  0.71862843  0.48448262  0.37734719    -0.07100
C424        C  0.66959887  0.47026037  0.39430337    -0.07800
C425        C  0.62926133  0.50619783  0.39636766    -0.02400
C426        C  0.63908295  0.55750582  0.38131888     0.04500
N427        N  0.59977322  0.59584598  0.38212893     0.67000
H428        H  0.69495897  0.61089263  0.35294095     0.15900
H429        H  0.66310638  0.43076194  0.40564122     0.15600
N430        N  0.75895840  0.44721749  0.37719408     0.74700
O431        O  0.59149087  0.62117068  0.42277196    -0.38800
O432        O  0.57859611  0.60933437  0.34063102    -0.38700
O433        O  0.79454937  0.45039650  0.40998884    -0.39400
O434        O  0.75479120  0.40714663  0.35008538    -0.39500
C435        C  0.85187322  0.70768447  0.89960462    -0.11800
C436        C  0.84857020  0.71839079  0.84685627     0.05200
C437        C  0.86557488  0.68137299  0.81075349    -0.07100
C438        C  0.88640982  0.63501929  0.82832892    -0.07800
C439        C  0.88980187  0.62439671  0.88115050    -0.02400
C440        C  0.87218235  0.66121183  0.91696943     0.04500
N441        N  0.87229992  0.65103299  0.97098798     0.67000
H442        H  0.83862826  0.73560105  0.92762514     0.15900
H443        H  0.89894359  0.60661566  0.80048411     0.15600
N444        N  0.85936787  0.68887377  0.75642048     0.74700
O445        O  0.90604297  0.67133038  0.99931295    -0.38800
O446        O  0.83438291  0.62870408  0.99127852    -0.38700
O447        O  0.89548242  0.67765002  0.72597856    -0.39400
O448        O  0.81565076  0.69942131  0.73831879    -0.39500
C449        C  0.70606921  0.90722954  0.85524649    -0.11800
C450        C  0.72297866  0.85776780  0.86882274     0.05200
C451        C  0.69441134  0.82973547  0.90580003    -0.07100
C452        C  0.64882435  0.85013543  0.92557186    -0.07800
C453        C  0.63037124  0.89786189  0.90905994    -0.02400
C454        C  0.66055810  0.92761384  0.87530012     0.04500
N455        N  0.64572871  0.97871353  0.86138338     0.67000
H456        H  0.72803191  0.93036133  0.82854318     0.15900
H457        H  0.62610260  0.82685932  0.95154554     0.15600
N458        N  0.70902013  0.77922390  0.92155247     0.74700
O459        O  0.64156328  0.01288746  0.89570014    -0.38800
O460        O  0.64234972  0.99110658  0.81458166    -0.38700
O461        O  0.72701464  0.77233023  0.96608039    -0.39400
O462        O  0.69548371  0.74092455  0.89493115    -0.39500
C463        C  0.91536406  0.87121405  0.66169553    -0.11800
C464        C  0.88279323  0.90201097  0.63188355     0.05200
C465        C  0.83470526  0.91680717  0.65215782    -0.07100
C466        C  0.81906367  0.89820256  0.70020443    -0.07800
C467        C  0.85083794  0.86537551  0.72894308    -0.02400
C468        C  0.90037060  0.85357862  0.71007995     0.04500
N469        N  0.93632115  0.82449423  0.73982249     0.67000
H470        H  0.95313002  0.86091961  0.64745910     0.15900
H471        H  0.78093173  0.90775431  0.71392314     0.15600
N472        N  0.79976070  0.94742038  0.62300120     0.74700
O473        O  0.95760744  0.78532935  0.72058288    -0.38800
O474        O  0.95170950  0.84164954  0.78260031    -0.38700
O475        O  0.76408977  0.92588983  0.59819247    -0.39400
O476        O  0.79878277  0.99546029  0.62957775    -0.39500
loop_ 
_geom_bond_atom_site_label_1 
_geom_bond_atom_site_label_2 
_geom_bond_distance 
_geom_bond_site_symmetry_2 
_ccdc_geom_bond_type 
C1            N2   1.353       .  A
C1            N6   1.354       .  A
C1          C436   1.473       .  S
N2            C3   1.356       .  A
C3            N4   1.358       .  A
C3          C467   1.480       .  S
N4            C5   1.360       .  A
C5            N6   1.356       .  A
C5          C450   1.487       .  S
C7            N8   1.360       .  A
C7           N12   1.359       .  A
C7          C394   1.490       .  S
N8            C9   1.359       .  A
C9           N10   1.356       .  A
C9          C422   1.469       .  S
N10          C11   1.356       .  A
C11          N12   1.354       .  A
C11         C408   1.482       .  S
Zn13         O17   1.941       .  S
Zn13         O18   1.985   1_556  S
Zn13         O22   2.008       .  S
Zn13         O29   2.005   1_655  S
Zn14         O17   1.973       .  S
Zn14         O19   2.027       .  S
Zn14         O21   2.024   1_556  S
Zn14         O25   2.017       .  S
Zn15         O17   1.932       .  S
Zn15         O20   1.999       .  S
Zn15         O23   1.975       .  S
Zn15         O26   1.994       .  S
Zn16         O17   1.944   1_455  S
Zn16         O24   2.016       .  S
Zn16         O27   1.992       .  S
Zn16         O28   2.003       .  S
O18          C30   1.270       .  A
O19          C31   1.274       .  A
O20          C32   1.271       .  A
O21          C30   1.275       .  A
O22          C32   1.272       .  A
O23          C31   1.269       .  A
O24          C33   1.272   1_455  A
O25          C34   1.274       .  A
O26          C33   1.271       .  A
O27          C34   1.271   1_455  A
O28          C35   1.273       .  A
O29          C35   1.272       .  A
C30         C397   1.485       .  S
C31         C380   1.485       .  S
C32         C439   1.475       .  S
C33         C352   1.478   1_655  S
C34         C366   1.482       .  S
C35         C338   1.479       .  S
C36          N37   1.350       .  A
C36          N41   1.353       .  A
C36         C324   1.473       .  S
N37          C38   1.356       .  A
C38          N39   1.360       .  A
C38         C383   1.486       .  S
N39          C40   1.362       .  A
C40          N41   1.357       .  A
C40         C310   1.475       .  S
Zn42         O46   1.948       .  S
Zn42         O47   2.012       .  S
Zn42         O51   2.000       .  S
Zn42         O58   2.004       .  S
Zn43         O46   1.946   1_545  S
Zn43         O48   1.991   1_556  S
Zn43         O50   1.995       .  S
Zn43         O54   2.013       .  S
Zn44         O46   1.958       .  S
Zn44         O49   2.015       .  S
Zn44         O52   2.012   1_556  S
Zn44         O55   2.014       .  S
Zn45         O46   1.942       .  S
Zn45         O53   1.993       .  S
Zn45         O56   1.993   1_565  S
Zn45         O57   2.007       .  S
O47          C59   1.272       .  A
O48          C60   1.270   1_545  A
O49          C61   1.273       .  A
O50          C59   1.272   1_545  A
O51          C61   1.273       .  A
O52          C60   1.274       .  A
O53          C62   1.271       .  A
O54          C63   1.271       .  A
O55          C62   1.273       .  A
O56          C63   1.271       .  A
O57          C64   1.272       .  A
O58          C64   1.272       .  A
C59         C299   1.475       .  S
C60         C271   1.482       .  S
C61         C254   1.485       .  S
C62         C453   1.476       .  S
C63         C313   1.475       .  S
C64         C282   1.472       .  S
C65          N66   1.356       .  A
C65          N70   1.359       .  A
C65         C243   1.463       .  S
N66          C67   1.356       .  A
C67          N68   1.353       .  A
C67         C296   1.472       .  S
N68          C69   1.357       .  A
C69          N70   1.359       .  A
C69         C369   1.489       .  S
C71          N72   1.356       .  A
C71          N76   1.353       .  A
C71         C212   1.478       .  S
N72          C73   1.357       .  A
C73          N74   1.359       .  A
C73         C226   1.467       .  S
N74          C75   1.360       .  A
C75          N76   1.356       .  A
C75         C285   1.479       .  S
Zn77         O81   1.942       .  S
Zn77         O82   2.004       .  S
Zn77         O86   1.993       .  S
Zn77         O93   2.009   1_655  S
Zn78         O81   1.944       .  S
Zn78         O83   1.994       .  S
Zn78         O85   1.998       .  S
Zn78         O89   2.008       .  S
Zn79         O81   1.965       .  S
Zn79         O84   2.015       .  S
Zn79         O87   2.008       .  S
Zn79         O90   2.015   1_565  S
Zn80         O81   1.941   1_455  S
Zn80         O88   1.979   1_565  S
Zn80         O91   2.003       .  S
Zn80         O92   1.999       .  S
O82          C94   1.271       .  A
O83          C95   1.272       .  A
O84          C96   1.272       .  A
O85          C94   1.272       .  A
O86          C96   1.272       .  A
O87          C95   1.273       .  A
O88          C97   1.270   1_455  A
O89          C98   1.272       .  A
O90          C97   1.273       .  A
O91          C98   1.271   1_455  A
O92          C99   1.272       .  A
O93          C99   1.273       .  A
C94         C411   1.469       .  S
C95         C198   1.478   1_565  S
C96         C464   1.477       .  S
C97         C184   1.468       .  S
C98         C240   1.482   1_655  S
C99         C215   1.473       .  S
C100        N101   1.356       .  A
C100        N105   1.360       .  A
C100        C268   1.487       .  S
N101        C102   1.355       .  A
C102        N103   1.354       .  A
C102        C201   1.470       .  S
N103        C104   1.355       .  A
C104        N105   1.358       .  A
C104        C173   1.486       .  S
C106        N107   1.358       .  A
C106        N111   1.362       .  A
C106        C156   1.491       .  S
N107        C108   1.351       .  A
C108        N109   1.352       .  A
C108        C355   1.474       .  S
N109        C110   1.358       .  A
C110        N111   1.365       .  A
C110        C187   1.484       .  S
C112        N113   1.359       .  A
C112        N117   1.354       .  A
C112        C257   1.490       .  S
N113        C114   1.360       .  A
C114        N115   1.358       .  A
C114        C142   1.481       .  S
N115        C116   1.356       .  A
C116        N117   1.354       .  A
C116        C341   1.468       .  S
Zn118       O122   1.947       .  S
Zn118       O123   2.003       .  S
Zn118       O127   2.007       .  S
Zn118       O134   2.017       .  S
Zn119       O122   1.973       .  S
Zn119       O124   2.029       .  S
Zn119       O126   2.021       .  S
Zn119       O130   2.027       .  S
Zn120       O122   1.943       .  S
Zn120       O125   2.001       .  S
Zn120       O128   1.970       .  S
Zn120       O131   2.004       .  S
Zn121       O122   1.942       .  S
Zn121       O129   2.018       .  S
Zn121       O132   1.990       .  S
Zn121       O133   1.995       .  S
O123        C135   1.273       .  A
O124        C136   1.275       .  A
O125        C137   1.271       .  A
O126        C135   1.274       .  A
O127        C137   1.273       .  A
O128        C136   1.267       .  A
O129        C138   1.272       .  A
O130        C139   1.274       .  A
O131        C138   1.271       .  A
O132        C139   1.273       .  A
O133        C140   1.270       .  A
O134        C140   1.274       .  A
C135        C170   1.483       .  S
C136        C159   1.485       .  S
C137        C327   1.475       .  S
C138        C229   1.477       .  S
C139        C145   1.487       .  S
C140        C425   1.484       .  S
C141        C142   1.406       .  A
C141        C146   1.402       .  A
C141        H148   1.084       .  S
C142        C143   1.412       .  A
C143        C144   1.395       .  A
C143        N150   1.430       .  S
C144        C145   1.406       .  A
C144        H149   1.083       .  S
C145        C146   1.414       .  A
C146        N147   1.429       .  S
N147        O151   1.262       .  A
N147        O152   1.262       .  A
N150        O154   1.262       .  A
N150        O153   1.262       .  A
C155        C156   1.405       .  A
C155        C160   1.391       .  A
C155        H162   1.083       .  S
C156        C157   1.415       .  A
C157        C158   1.403       .  A
C157        N164   1.426       .  S
C158        C159   1.404       .  A
C158        H163   1.084       .  S
C159        C160   1.415       .  A
C160        N161   1.430       .  S
N161        O165   1.261       .  A
N161        O166   1.262       .  A
N164        O168   1.262       .  A
N164        O167   1.261       .  A
C169        C170   1.405       .  A
C169        C174   1.397       .  A
C169        H176   1.084       .  S
C170        C171   1.412       .  A
C171        C172   1.400       .  A
C171        N178   1.429       .  S
C172        C173   1.407       .  A
C172        H177   1.083       .  S
C173        C174   1.415       .  A
C174        N175   1.430       .  S
N175        O179   1.262       .  A
N175        O180   1.262       .  A
N178        O182   1.262       .  A
N178        O181   1.262       .  A
C183        C184   1.400   1_455  A
C183        C188   1.398       .  A
C183        H190   1.084       .  S
C184        C185   1.405       .  A
C185        C186   1.397       .  A
C185        N192   1.430       .  S
C186        C187   1.410   1_655  A
C186        H191   1.083       .  S
C187        C188   1.414       .  A
C188        N189   1.433       .  S
N189        O193   1.263       .  A
N189        O194   1.262       .  A
N192        O196   1.262       .  A
N192        O195   1.262       .  A
C197        C198   1.405       .  A
C197        C202   1.400       .  A
C197        H204   1.083   1_545  S
C198        C199   1.411       .  A
C199        C200   1.397       .  A
C199        N206   1.429       .  S
C200        C201   1.402       .  A
C200        H205   1.084       .  S
C201        C202   1.413       .  A
C202        N203   1.438       .  S
N203        O207   1.263       .  A
N203        O208   1.263   1_545  A
N206        O210   1.262   1_545  A
N206        O209   1.262       .  A
C211        C212   1.405       .  A
C211        C216   1.398       .  A
C211        H218   1.083       .  S
C212        C213   1.413       .  A
C213        C214   1.398       .  A
C213        N220   1.430       .  S
C214        C215   1.402       .  A
C214        H219   1.084       .  S
C215        C216   1.409       .  A
C216        N217   1.429       .  S
N217        O221   1.262       .  A
N217        O222   1.262       .  A
N220        O224   1.262       .  A
N220        O223   1.262       .  A
C225        C226   1.399       .  A
C225        C230   1.396       .  A
C225        H232   1.084       .  S
C226        C227   1.407       .  A
C227        C228   1.403       .  A
C227        N234   1.429       .  S
C228        C229   1.406       .  A
C228        H233   1.083       .  S
C229        C230   1.412       .  A
C230        N231   1.429       .  S
N231        O235   1.262       .  A
N231        O236   1.262       .  A
N234        O238   1.262       .  A
N234        O237   1.262       .  A
C239        C240   1.408   1_655  A
C239        C244   1.400   1_655  A
C239        H246   1.083       .  S
C240        C241   1.416   1_565  A
C241        C242   1.398       .  A
C241        N248   1.430       .  S
C242        C243   1.398       .  A
C242        H247   1.084       .  S
C243        C244   1.403   1_545  A
C244        N245   1.428   1_455  S
N245        O249   1.262   1_655  A
N245        O250   1.262       .  A
N248        O252   1.262       .  A
N248        O251   1.262       .  A
C253        C254   1.404       .  A
C253        C258   1.396       .  A
C253        H260   1.084       .  S
C254        C255   1.413   1_556  A
C255        C256   1.400       .  A
C255        N262   1.429       .  S
C256        C257   1.407       .  A
C256        H261   1.082       .  S
C257        C258   1.416   1_554  A
C258        N259   1.430       .  S
N259        O263   1.262       .  A
N259        O264   1.262       .  A
N262        O266   1.262       .  A
N262        O265   1.262       .  A
C267        C268   1.406       .  A
C267        C272   1.396       .  A
C267        H274   1.083       .  S
C268        C269   1.418   1_545  A
C269        C270   1.400       .  A
C269        N276   1.433       .  S
C270        C271   1.404       .  A
C270        H275   1.084       .  S
C271        C272   1.413   1_565  A
C272        N273   1.430       .  S
N273        O277   1.262       .  A
N273        O278   1.262       .  A
N276        O280   1.262       .  A
N276        O279   1.262       .  A
C281        C282   1.404       .  A
C281        C286   1.402       .  A
C281        H288   1.083       .  S
C282        C283   1.408       .  A
C283        C284   1.395       .  A
C283        N290   1.430       .  S
C284        C285   1.406       .  A
C284        H289   1.083       .  S
C285        C286   1.411       .  A
C286        N287   1.430       .  S
N287        O291   1.262       .  A
N287        O292   1.262       .  A
N290        O294   1.262       .  A
N290        O293   1.262       .  A
C295        C296   1.402   1_565  A
C295        C300   1.401       .  A
C295        H302   1.084       .  S
C296        C297   1.411       .  A
C297        C298   1.394   1_554  A
C297        N304   1.430       .  S
C298        C299   1.402   1_545  A
C298        H303   1.084       .  S
C299        C300   1.412   1_556  A
C300        N301   1.429       .  S
N301        O305   1.262       .  A
N301        O306   1.262   1_554  A
N304        O308   1.262   1_554  A
N304        O307   1.262       .  A
C309        C310   1.404       .  A
C309        C314   1.402       .  A
C309        H316   1.083       .  S
C310        C311   1.412       .  A
C311        C312   1.394       .  A
C311        N318   1.430       .  S
C312        C313   1.401       .  A
C312        H317   1.084       .  S
C313        C314   1.412       .  A
C314        N315   1.429       .  S
N315        O319   1.262   1_556  A
N315        O320   1.262   1_556  A
N318        O322   1.262       .  A
N318        O321   1.262       .  A
C323        C324   1.401       .  A
C323        C328   1.399       .  A
C323        H330   1.083       .  S
C324        C325   1.414       .  A
C325        C326   1.397       .  A
C325        N332   1.432       .  S
C326        C327   1.401       .  A
C326        H331   1.083       .  S
C327        C328   1.412       .  A
C328        N329   1.429       .  S
N329        O333   1.262       .  A
N329        O334   1.262       .  A
N332        O336   1.262       .  A
N332        O335   1.262       .  A
C337        C338   1.407   1_554  A
C337        C342   1.398       .  A
C337        H344   1.083   1_554  S
C338        C339   1.413   1_556  A
C339        C340   1.397       .  A
C339        N346   1.429   1_554  S
C340        C341   1.402       .  A
C340        H345   1.084       .  S
C341        C342   1.405       .  A
C342        N343   1.429       .  S
N343        O347   1.262       .  A
N343        O348   1.262   1_554  A
N346        O350   1.262       .  A
N346        O349   1.262   1_556  A
C351        C352   1.406   1_655  A
C351        C356   1.397       .  A
C351        H358   1.084       .  S
C352        C353   1.411       .  A
C353        C354   1.399       .  A
C353        N360   1.429       .  S
C354        C355   1.405       .  A
C354        H359   1.084       .  S
C355        C356   1.408   1_455  A
C356        N357   1.429       .  S
N357        O361   1.262       .  A
N357        O362   1.262       .  A
N360        O364   1.262       .  A
N360        O363   1.262       .  A
C365        C366   1.405   1_554  A
C365        C370   1.402       .  A
C365        H372   1.083       .  S
C366        C367   1.412   1_655  A
C367        C368   1.394       .  A
C367        N374   1.431       .  S
C368        C369   1.407   1_556  A
C368        H373   1.082       .  S
C369        C370   1.416   1_455  A
C370        N371   1.429       .  S
N371        O375   1.262       .  A
N371        O376   1.262       .  A
N374        O378   1.262       .  A
N374        O377   1.262       .  A
C379        C380   1.409       .  A
C379        C384   1.406       .  A
C379        H386   1.074       .  S
C380        C381   1.414       .  A
C381        C382   1.391       .  A
C381        N388   1.431       .  S
C382        C383   1.406       .  A
C382        H387   1.067       .  S
C383        C384   1.413       .  A
C384        N385   1.429       .  S
N385        O389   1.262       .  A
N385        O390   1.262       .  A
N388        O392   1.262       .  A
N388        O391   1.262       .  A
C393        C394   1.406       .  A
C393        C398   1.393       .  A
C393        H400   1.080       .  S
C394        C395   1.415       .  A
C395        C396   1.403       .  A
C395        N402   1.428       .  S
C396        C397   1.406       .  A
C396        H401   1.083       .  S
C397        C398   1.414       .  A
C398        N399   1.430       .  S
N399        O403   1.262       .  A
N399        O404   1.262   1_655  A
N402        O406   1.262       .  A
N402        O405   1.262       .  A
C407        C408   1.406       .  A
C407        C412   1.399       .  A
C407        H414   1.083       .  S
C408        C409   1.416       .  A
C409        C410   1.396       .  A
C409        N416   1.429       .  S
C410        C411   1.399       .  A
C410        H415   1.084       .  S
C411        C412   1.408       .  A
C412        N413   1.430       .  S
N413        O417   1.262       .  A
N413        O418   1.262       .  A
N416        O420   1.262       .  A
N416        O419   1.262       .  A
C421        C422   1.400       .  A
C421        C426   1.397       .  A
C421        H428   1.084       .  S
C422        C423   1.406       .  A
C423        C424   1.401       .  A
C423        N430   1.430       .  S
C424        C425   1.407       .  A
C424        H429   1.084       .  S
C425        C426   1.416       .  A
C426        N427   1.430       .  S
N427        O431   1.262       .  A
N427        O432   1.262       .  A
N430        O434   1.262       .  A
N430        O433   1.262       .  A
C435        C436   1.402       .  A
C435        C440   1.396       .  A
C435        H442   1.083       .  S
C436        C437   1.414       .  A
C437        C438   1.401       .  A
C437        N444   1.435       .  S
C438        C439   1.404       .  A
C438        H443   1.083       .  S
C439        C440   1.410       .  A
C440        N441   1.429       .  S
N441        O445   1.262       .  A
N441        O446   1.262       .  A
N444        O448   1.263       .  A
N444        O447   1.262       .  A
C449        C450   1.407       .  A
C449        C454   1.398       .  A
C449        H456   1.083       .  S
C450        C451   1.419       .  A
C451        C452   1.398       .  A
C451        N458   1.430       .  S
C452        C453   1.401       .  A
C452        H457   1.084       .  S
C453        C454   1.411       .  A
C454        N455   1.432       .  S
N455        O459   1.262   1_565  A
N455        O460   1.262       .  A
N458        O462   1.262       .  A
N458        O461   1.262       .  A
C463        C464   1.402       .  A
C463        C468   1.395       .  A
C463        H470   1.084       .  S
C464        C465   1.411       .  A
C465        C466   1.401       .  A
C465        N472   1.429       .  S
C466        C467   1.406       .  A
C466        H471   1.084       .  S
C467        C468   1.413       .  A
C468        N469   1.432       .  S
N469        O473   1.262       .  A
N469        O474   1.262       .  A
N472        O476   1.262       .  A
N472        O475   1.262       .  A
