geometry optimzed in LAMMPS
_audit_creation_date              2020-11-30 
_audit_creation_method            'lammps2cif' 
_symmetry_space_group_name_H-M    'P1' 
_symmetry_Int_Tables_number       1 
_symmetry_cell_setting            triclinic 
loop_ 
_symmetry_equiv_pos_as_xyz 
  x,y,z 
_cell_length_a                    28.448629720364266 
_cell_length_b                    28.00765495382674 
_cell_length_c                    29.02336294722446 
_cell_angle_alpha                 83.15781565951401 
_cell_angle_beta                  93.13593448594287 
_cell_angle_gamma                 90.56245514714863 
loop_ 
_atom_site_label 
_atom_site_type_symbol 
_atom_site_fract_x 
_atom_site_fract_y 
_atom_site_fract_z 
_atom_site_charge 
Zn1        Zn  0.47024399  0.91918532  0.49834506     1.49720
Zn2        Zn  0.05397774  0.99067924  0.03184655     1.49360
Zn3        Zn  0.48547983  0.43826181  0.09638449     1.49110
Zn4        Zn  0.06293366  0.37762387  0.54514091     1.49480
O5          O  0.01995593  0.93204288  0.04351456    -1.83500
O6          O  0.46570150  0.98232161  0.45553586    -0.74130
O7          O  0.04071981  0.04198857  0.06932569    -0.73950
O8          O  0.41867356  0.46138608  0.07660109    -0.73470
O9          O  0.03920541  0.00927868  0.96451958    -0.74150
O10         O  0.41323717  0.90557494  0.53131134    -0.73740
O11         O  0.51411928  0.49065881  0.12685136    -0.74330
O12         O  0.03468889  0.33050482  0.59435420    -0.73720
O13         O  0.11696474  0.97210599  0.05787188    -0.74480
O14         O  0.48558722  0.37368583  0.13167051    -0.73870
O15         O  0.13138643  0.39834637  0.54849994    -0.74330
O16         O  0.05928315  0.35757840  0.47947669    -0.74240
O17         O  0.48357624  0.85697198  0.47808792    -0.74030
C18         C  0.49578838  0.01668186  0.45293714     0.77760
C19         C  0.02911978  0.53216734  0.11076204     0.78250
C20         C  0.39899218  0.94502356  0.54152455     0.77210
C21         C  0.00225676  0.33381523  0.12277867     0.77580
C22         C  0.13724586  0.44278576  0.03634642     0.78720
C23         C  0.52031713  0.86579109  0.45686617     0.77770
C24         C  0.01518486  0.48801200  0.27218185     0.01190
C25         C  0.00569746  0.01466092  0.30794000     0.01190
C26         C  0.23609194  0.03226820  0.39658418     0.01190
C27         C  0.26435571  0.04075474  0.93728232     0.01190
C28         C  0.42843129  0.19401521  0.49590978     0.01190
C29         C  0.96696037  0.21448703  0.51834278     0.01190
C30         C  0.49566304  0.23395100  0.29933207     0.01190
C31         C  0.03142963  0.26937314  0.29537023     0.01190
Zn32       Zn  0.30512197  0.33932939  0.19964113     1.49720
Zn33       Zn  0.29568771  0.35737272  0.31204398     1.49360
Zn34       Zn  0.21541153  0.31143707  0.23778248     1.49110
Zn35       Zn  0.29902113  0.24592455  0.27906959     1.49480
O36         O  0.28048130  0.31687596  0.25956384    -1.83500
O37         O  0.35557194  0.38819760  0.21409784    -0.74130
O38         O  0.22884745  0.38303702  0.32513421    -0.73950
O39         O  0.19077288  0.34025884  0.17745659    -0.73470
O40         O  0.34819141  0.40213167  0.28586639    -0.74150
O41         O  0.25684419  0.37520298  0.15727440    -0.73740
O42         O  0.18125102  0.33727109  0.28795052    -0.74330
O43         O  0.24223037  0.20104361  0.28890562    -0.73720
O44         O  0.32588970  0.31421272  0.36544580    -0.74480
O45         O  0.22657773  0.24508931  0.22496305    -0.73870
O46         O  0.33435884  0.24517126  0.33965416    -0.74330
O47         O  0.33273437  0.22148723  0.22853796    -0.74240
O48         O  0.31436244  0.27785725  0.16915731    -0.74030
C49         C  0.36770334  0.37915669  0.25696242     0.77760
C50         C  0.19987020  0.37851785  0.29103425     0.78250
C51         C  0.21759737  0.35660109  0.14634619     0.77210
C52         C  0.21231283  0.21632637  0.25728220     0.77580
C53         C  0.31146984  0.27182514  0.36284825     0.78720
C54         C  0.32462257  0.23456055  0.18530946     0.77770
C55         C  0.17773660  0.21765537  0.48172659     0.01190
C56         C  0.21766630  0.22365713  0.01295007     0.01190
C57         C  0.23852810  0.52635357  0.14920182     0.01190
C58         C  0.25202323  0.06016923  0.18041445     0.01190
C59         C  0.26657913  0.19090379  0.14448235    -0.20680
C60         C  0.31461515  0.19601873  0.15670836    -0.08720
C61         C  0.34361557  0.15525114  0.16260191     0.30140
C62         C  0.32318796  0.10959528  0.16381012    -0.20680
C63         C  0.27399111  0.10499127  0.16094737    -0.08740
C64         C  0.24590746  0.14560826  0.14864996     0.30140
F65         F  0.19822690  0.14186749  0.14661330    -0.19260
H66         H  0.24346306  0.22172417  0.14100198     0.18510
H67         H  0.34514422  0.07810645  0.17278981     0.18510
F68         F  0.39016103  0.15932334  0.17459403    -0.19250
C69         C  0.25194138  0.43147487  0.24421392    -0.20680
C70         C  0.20723101  0.41151362  0.24859176    -0.08720
C71         C  0.17192778  0.42544673  0.21381899     0.30140
C72         C  0.18257905  0.45991823  0.17628713    -0.20680
C73         C  0.22873884  0.47841322  0.17319212    -0.08740
C74         C  0.26432167  0.45926943  0.20465374     0.30140
F75         F  0.30911919  0.47644966  0.20232712    -0.19260
H76         H  0.27604590  0.42970241  0.27353327     0.18510
H77         H  0.15469992  0.47425913  0.15187189     0.18510
F78         F  0.12741797  0.40809449  0.21745777    -0.19250
C79         C  0.25260911  0.32705103  0.08188007    -0.20680
C80         C  0.21125655  0.33724644  0.10189535    -0.08720
C81         C  0.17044543  0.31075447  0.09209540     0.30140
C82         C  0.17209779  0.27342153  0.06449203    -0.20680
C83         C  0.21500007  0.25961656  0.04791738    -0.08740
C84         C  0.25593647  0.28534460  0.06162271     0.30140
F85         F  0.30023505  0.26786507  0.06274205    -0.19260
H86         H  0.28528644  0.34501598  0.09055267     0.18510
H87         H  0.14007366  0.25374612  0.06015447     0.18510
F88         F  0.12966367  0.31871736  0.11204477    -0.19250
C89         C  0.24957874  0.21064064  0.38288303    -0.20680
C90         C  0.26337682  0.25906648  0.37649501    -0.08720
C91         C  0.23490151  0.29364984  0.39295480     0.30140
C92         C  0.19760493  0.27918395  0.41991253    -0.20680
C93         C  0.18919263  0.23031401  0.43274235    -0.08740
C94         C  0.21106207  0.19676919  0.40906057     0.30140
F95         F  0.19645676  0.15062633  0.41243886    -0.19260
H96         H  0.27069511  0.18300337  0.37107353     0.18510
H97         H  0.18318515  0.30571527  0.43947477     0.18510
F98         F  0.25129219  0.33856509  0.39714254    -0.19250
C99         C  0.09437314  0.26685360  0.24393986    -0.20680
C100        C  0.07845861  0.25429565  0.28829181    -0.08720
C101        C  0.10392771  0.22237861  0.32114605     0.30140
C102        C  0.14592735  0.20343409  0.30893505    -0.20680
C103        C  0.16236434  0.21708763  0.26475921    -0.08740
C104        C  0.13395382  0.24526433  0.23110955     0.30140
F105        F  0.14536698  0.25301193  0.18607968    -0.19260
H106        H  0.07421652  0.29069259  0.21821549     0.18510
H107        H  0.16596404  0.17896562  0.33360104     0.18510
F108        F  0.08757230  0.20893963  0.36383963    -0.19250
C109        C  0.42342829  0.25805532  0.25664774    -0.20680
C110        C  0.44829838  0.25383426  0.29950903    -0.08720
C111        C  0.43810367  0.28463703  0.33250564     0.30140
C112        C  0.40909880  0.32418654  0.31917801    -0.20680
C113        C  0.38962479  0.33264646  0.27356202    -0.08740
C114        C  0.39714619  0.29913681  0.24246823     0.30140
F115        F  0.38993539  0.31143762  0.19615700    -0.19260
H116        H  0.43277750  0.23579267  0.23042757     0.18510
H117        H  0.40529127  0.35043554  0.34313286     0.18510
F118        F  0.46285877  0.28182506  0.37401835    -0.19250
C119        C  0.34971349  0.23874180  0.97430534    -0.20680
C120        C  0.37449002  0.20126546  0.00175406    -0.08720
C121        C  0.34517858  0.16977528  0.53037371     0.30140
C122        C  0.29504087  0.17454300  0.52917658    -0.20680
C123        C  0.27027109  0.21230006  0.00200247    -0.08740
C124        C  0.30072355  0.24678450  0.97824941     0.30140
F125        F  0.28677368  0.29299878  0.96946641    -0.19260
H126        H  0.36954662  0.26538619  0.95314590     0.18510
H127        H  0.27607803  0.15079069  0.55356017     0.18510
F128        F  0.36440409  0.13578094  0.56248297    -0.19250
C129        C  0.10305789  0.17898787  0.02120094    -0.20680
C130        C  0.12314730  0.21612499  0.49072558    -0.08720
C131        C  0.08913107  0.24808058  0.46539620     0.30140
C132        C  0.03988161  0.24522144  0.47316498    -0.20680
C133        C  0.02012501  0.21022909  0.50547694    -0.08740
C134        C  0.05328264  0.17563831  0.02781291     0.30140
F135        F  0.03750345  0.13728381  0.05538993    -0.19260
H136        H  0.12593482  0.15165789  0.03973950     0.18510
H137        H  0.01655220  0.27108420  0.45333186     0.18510
F138        F  0.10251888  0.28330968  0.43271911    -0.19250
C139        C  0.20593881  0.53211755  0.30925099    -0.20680
C140        C  0.24415885  0.04048537  0.34156824    -0.08720
C141        C  0.28554494  0.05761284  0.31874566     0.30140
C142        C  0.28826752  0.06300398  0.26841718    -0.20680
C143        C  0.24995489  0.05301445  0.23653832    -0.08740
C144        C  0.20850477  0.53903282  0.25955533     0.30140
F145        F  0.16879953  0.53421373  0.23341854    -0.19260
H146        H  0.17212516  0.52107631  0.32228216     0.18510
H147        H  0.32133668  0.07529931  0.25459444     0.18510
F148        F  0.32394661  0.06990734  0.34442547    -0.19250
C149        C  0.22633089  0.07013819  0.06257286    -0.20680
C150        C  0.24216909  0.53037486  0.09421854    -0.08720
C151        C  0.25843090  0.49150121  0.07156924     0.30140
C152        C  0.25978186  0.49335279  0.02196714    -0.20680
C153        C  0.24724616  0.53464665  0.99020833    -0.08740
C154        C  0.23027762  0.07288279  0.01298225     0.30140
F155        F  0.21876132  0.11476418  0.98794578    -0.19260
H156        H  0.21096356  0.10029095  0.07604971     0.18510
H157        H  0.27358527  0.46237646  0.00834555     0.18510
F158        F  0.27579062  0.45152609  0.09738288    -0.19250
C159        C  0.05820130  0.35508382  0.31336397    -0.20680
C160        C  0.02619438  0.32589371  0.28981295    -0.08720
C161        C  0.49839967  0.35209127  0.25361619     0.30140
C162        C  0.49325586  0.40311303  0.24953031    -0.20680
C163        C  0.02157738  0.43192899  0.27672163    -0.08740
C164        C  0.05819744  0.40643006  0.30430356     0.30140
F165        F  0.09669515  0.43056759  0.31882323    -0.19260
H166        H  0.08568882  0.33794685  0.33669003     0.18510
H167        H  0.46882737  0.42039483  0.22291912     0.18510
F168        F  0.48124399  0.32911183  0.21837562    -0.19250
C169        C  0.03794124  0.10117651  0.28419755    -0.20680
C170        C  0.50266253  0.07083148  0.30409866    -0.08720
C171        C  0.46358370  0.09506948  0.31854254     0.30140
C172        C  0.46234145  0.14643019  0.31669915    -0.20680
C173        C  0.49891815  0.17729406  0.29859520    -0.08740
C174        C  0.03420588  0.15218035  0.27799195     0.30140
F175        F  0.06211305  0.17513170  0.24653418    -0.19260
H176        H  0.06833718  0.08546598  0.27128058     0.18510
H177        H  0.43199463  0.16198343  0.33008085     0.18510
F178        F  0.42684314  0.06907237  0.33617561    -0.19250
C179        C  0.43110098  0.29705842  0.60408004    -0.20680
C180        C  0.97256463  0.29149847  0.13289691    -0.08720
C181        C  0.99460329  0.24679645  0.13780013     0.30140
C182        C  0.98751438  0.21780212  0.10239641    -0.20680
C183        C  0.95964330  0.23452787  0.06221574    -0.08740
C184        C  0.42888880  0.27334987  0.56450564     0.30140
F185        F  0.40359339  0.29390637  0.52669509    -0.19260
H186        H  0.41041868  0.32955903  0.60280419     0.18510
H187        H  0.00781250  0.18543781  0.10478190     0.18510
F188        F  0.03041888  0.23659760  0.16987638    -0.19250
C189        C  0.98268720  0.10475845  0.42724979    -0.20680
C190        C  0.47757585  0.06336174  0.45849209    -0.08720
C191        C  0.45979521  0.06681481  0.50138567     0.30140
C192        C  0.44343042  0.10948725  0.51210630    -0.20680
C193        C  0.44097201  0.14942152  0.47879404    -0.08740
C194        C  0.96238971  0.14788768  0.43647919     0.30140
F195        F  0.96737709  0.18856910  0.40694243    -0.19260
H196        H  0.00363103  0.10383070  0.39758888     0.18510
H197        H  0.43639637  0.11171959  0.04780445     0.18510
F198        F  0.46098706  0.02882592  0.53440218    -0.19250
C199        C  0.34065639  0.05508799  0.97469656    -0.20680
C200        C  0.31618479  0.03434499  0.93860255    -0.08720
C201        C  0.33167539  0.48934248  0.42886752     0.30140
C202        C  0.35903660  0.46057872  0.46248170    -0.20680
C203        C  0.37168155  0.97659276  0.00563262    -0.08740
C204        C  0.36252830  0.02470451  0.01119910     0.30140
F205        F  0.37127638  0.04131431  0.05288072    -0.19260
H206        H  0.33092357  0.09070103  0.98154492     0.18510
H207        H  0.36802029  0.42468058  0.45564997     0.18510
F208        F  0.31418914  0.46956388  0.39103422    -0.19250
C209        C  0.14063128  0.00668430  0.46979175    -0.20680
C210        C  0.15432883  0.46053163  0.49062085    -0.08720
C211        C  0.18407375  0.43295878  0.96706602     0.30140
C212        C  0.20385641  0.45411999  0.92648424    -0.20680
C213        C  0.19484445  0.50289152  0.41033880    -0.08520
C214        C  0.15828999  0.02633285  0.42809577     0.30140
F215        F  0.14688417  0.07206576  0.41075943    -0.19260
H216        H  0.11879576  0.02933423  0.48734455     0.18510
H217        H  0.23157084  0.43516025  0.91221112     0.18510
F218        F  0.19720542  0.38787051  0.98528422    -0.19250
C219        C  0.04775454  0.97622262  0.37677184    -0.20680
C220        C  0.50418629  0.98594040  0.35307929    -0.08720
C221        C  0.46633992  0.45406363  0.36150431     0.30140
C222        C  0.47257323  0.41280855  0.39322264    -0.20680
C223        C  0.51684965  0.90231212  0.41605396    -0.08740
C224        C  0.05461568  0.93340924  0.40597722     0.30140
F225        F  0.09861452  0.92106033  0.42210627    -0.19260
H226        H  0.07790805  0.99889664  0.36824025     0.18510
H227        H  0.44255128  0.38984710  0.40105421     0.18510
F228        F  0.42440089  0.46167386  0.33723130    -0.19250
C229        C  0.49307097  0.57412582  0.16390529    -0.20680
C230        C  0.03539927  0.56734326  0.14315176    -0.08720
C231        C  0.07461904  0.55358828  0.17249079     0.30140
C232        C  0.06672391  0.52181651  0.21217330    -0.20680
C233        C  0.02104969  0.51578683  0.22733041    -0.08740
C234        C  0.48432330  0.54470405  0.20482357     0.30140
F235        F  0.44045898  0.54282204  0.22119841    -0.19260
H236        H  0.46367362  0.59150666  0.14343464     0.18510
H237        H  0.09512953  0.50175240  0.23124906     0.18510
F238        F  0.11808192  0.55700732  0.15534943    -0.19250
Zn239      Zn  0.47042617  0.91910376  0.99833917     1.49720
Zn240      Zn  0.05381085  0.99076754  0.53182042     1.49360
Zn241      Zn  0.48531044  0.43836629  0.59638745     1.49110
Zn242      Zn  0.06312832  0.37754825  0.04513651     1.49480
O243        O  0.01978313  0.93213501  0.54350846    -1.83500
O244        O  0.46588920  0.98224851  0.95555249    -0.74130
O245        O  0.04059513  0.04208775  0.56930529    -0.73950
O246        O  0.41849737  0.46148825  0.57663446    -0.73470
O247        O  0.03901826  0.00935306  0.46449555    -0.74150
O248        O  0.41339789  0.90548980  0.03127103    -0.73740
O249        O  0.51397614  0.49076561  0.62682891    -0.74330
O250        O  0.03485470  0.33041366  0.09432241    -0.73720
O251        O  0.11680449  0.97219215  0.55781898    -0.74480
O252        O  0.48541874  0.37379690  0.63168181    -0.73870
O253        O  0.13157770  0.39828447  0.04855923    -0.74330
O254        O  0.05951019  0.35755036  0.97945075    -0.74240
O255        O  0.48377497  0.85690450  0.97806035    -0.74030
C256        C  0.49597858  0.01660597  0.95294807     0.77760
C257        C  0.02900766  0.53226242  0.61074204     0.78250
C258        C  0.39915406  0.94493490  0.04149597     0.77210
C259        C  0.00208178  0.33392071  0.62279738     0.77580
C260        C  0.13706967  0.44284664  0.53629417     0.78720
C261        C  0.52051438  0.86574380  0.95684035     0.77770
C262        C  0.01532088  0.48801977  0.77218151     0.01190
C263        C  0.00585845  0.01466229  0.80795750     0.01190
C264        C  0.23618626  0.03222467  0.89659630     0.01190
C265        C  0.26424983  0.04081582  0.43726931     0.01190
C266        C  0.42860526  0.19394204  0.99587383     0.01190
C267        C  0.96713880  0.21441248  0.01830102     0.01190
C268        C  0.49578490  0.23395737  0.79932165     0.01190
C269        C  0.03155246  0.26937832  0.79534856     0.01190
Zn270      Zn  0.30520188  0.33937517  0.69963892     1.49720
Zn271      Zn  0.29585253  0.35742588  0.81205738     1.49360
Zn272      Zn  0.21552581  0.31150209  0.73784572     1.49110
Zn273      Zn  0.29915263  0.24597655  0.77904879     1.49480
O274        O  0.28060381  0.31693065  0.75957616    -1.83500
O275        O  0.35568675  0.38821391  0.71409634    -0.74130
O276        O  0.22904738  0.38314983  0.82516944    -0.73950
O277        O  0.19083398  0.34032616  0.67754367    -0.73470
O278        O  0.34835725  0.40217194  0.78586831    -0.74150
O279        O  0.25689852  0.37525387  0.65729835    -0.73740
O280        O  0.18143273  0.33733173  0.78805879    -0.74330
O281        O  0.24236465  0.20108560  0.78889697    -0.73720
O282        O  0.32604573  0.31424982  0.86545804    -0.74480
O283        O  0.22669931  0.24517391  0.72498407    -0.73870
O284        O  0.33454891  0.24524471  0.83959781    -0.74330
O285        O  0.33283064  0.22154467  0.72849364    -0.74240
O286        O  0.31439595  0.27790614  0.66912774    -0.74030
C287        C  0.36784040  0.37917774  0.75695844     0.77760
C288        C  0.20003014  0.37859439  0.79110501     0.78250
C289        C  0.21761782  0.35669422  0.64640628     0.77210
C290        C  0.21244339  0.21637805  0.75728090     0.77580
C291        C  0.31164996  0.27185944  0.86282232     0.78720
C292        C  0.32466619  0.23460931  0.68527185     0.77770
C293        C  0.17791155  0.21753042  0.98165496     0.01190
C294        C  0.21750106  0.22378601  0.51300807     0.01190
C295        C  0.23847961  0.52641445  0.64919626     0.01190
C296        C  0.25199316  0.06021290  0.68040951     0.01190
C297        C  0.26657484  0.19095572  0.64448721    -0.20680
C298        C  0.31461849  0.19605868  0.65668825    -0.08720
C299        C  0.34360547  0.15528072  0.66257613     0.30140
C300        C  0.32316397  0.10963001  0.66379745    -0.20680
C301        C  0.27396595  0.10503757  0.66095011    -0.08740
C302        C  0.24589065  0.14566406  0.64866614     0.30140
F303        F  0.19820936  0.14193555  0.64664168    -0.19260
H304        H  0.24346943  0.22178461  0.64100635     0.18510
H305        H  0.34511522  0.07813546  0.67276281     0.18510
F306        F  0.39015824  0.15934042  0.67454196    -0.19250
C307        C  0.25201889  0.43151259  0.74414755    -0.20680
C308        C  0.20732605  0.41157883  0.74864177    -0.08720
C309        C  0.17196054  0.42552258  0.71392963     0.30140
C310        C  0.18255421  0.45999442  0.67638144    -0.20680
C311        C  0.22870891  0.47847518  0.67319424    -0.08740
C312        C  0.26434598  0.45931604  0.70459009     0.30140
F313        F  0.30914269  0.47647631  0.70217211    -0.19260
H314        H  0.27631479  0.42967123  0.77352728     0.18510
H315        H  0.15462739  0.47434058  0.65200120     0.18510
F316        F  0.12745957  0.40817013  0.71764586    -0.19250
C317        C  0.25250164  0.32722644  0.58184341    -0.20680
C318        C  0.21118383  0.33741744  0.60192168    -0.08720
C319        C  0.17035360  0.31093443  0.59215815     0.30140
C320        C  0.17196635  0.27360128  0.56454391    -0.20680
C321        C  0.21485520  0.25976791  0.54795821    -0.08740
C322        C  0.25580462  0.28549192  0.56163043     0.30140
F323        F  0.30009384  0.26798469  0.56276606    -0.19260
H324        H  0.28519184  0.34519152  0.59047192     0.18510
H325        H  0.13992896  0.25394342  0.56020976     0.18510
F326        F  0.12959882  0.31890298  0.61215545    -0.19250
C327        C  0.24982132  0.21061439  0.88283892    -0.20680
C328        C  0.26356651  0.25905471  0.87645851    -0.08720
C329        C  0.23505237  0.29360202  0.89292017     0.30140
C330        C  0.19776197  0.27909014  0.91986759    -0.20680
C331        C  0.18938414  0.23020901  0.93267785    -0.08740
C332        C  0.21130874  0.19669312  0.90900042     0.30140
F333        F  0.19676741  0.15052986  0.91236469    -0.19260
H334        H  0.27097398  0.18300479  0.87102933     0.18510
H335        H  0.18332374  0.30560028  0.93944222     0.18510
F336        F  0.25140216  0.33852581  0.89712937    -0.19250
C337        C  0.09448504  0.26683761  0.74390472    -0.20680
C338        C  0.07857617  0.25429327  0.78826177    -0.08720
C339        C  0.10404765  0.22238404  0.82112089     0.30140
C340        C  0.14605138  0.20344492  0.80891678    -0.20680
C341        C  0.16249034  0.21709624  0.76474184    -0.08740
C342        C  0.13407257  0.24525337  0.73108220     0.30140
F343        F  0.14549579  0.25300193  0.68605470    -0.19260
H344        H  0.07432443  0.29066635  0.71817476     0.18510
H345        H  0.16609326  0.17899141  0.83359194     0.18510
F346        F  0.08769372  0.20895216  0.86381620    -0.19250
C347        C  0.42353001  0.25805342  0.75666147    -0.20680
C348        C  0.44841995  0.25384059  0.79951268    -0.08720
C349        C  0.43824218  0.28465344  0.83250576     0.30140
C350        C  0.40924841  0.32421283  0.81917572    -0.20680
C351        C  0.38975499  0.33266374  0.77356536    -0.08740
C352        C  0.39724485  0.29913509  0.74248349     0.30140
F353        F  0.38999434  0.31141525  0.69617569    -0.19260
H354        H  0.43286006  0.23577880  0.73044420     0.18510
H355        H  0.40545583  0.35046994  0.84312566     0.18510
F356        F  0.46299919  0.28183288  0.87401812    -0.19250
C357        C  0.34954498  0.23882707  0.47433382    -0.20680
C358        C  0.37431630  0.20134586  0.50178094    -0.08720
C359        C  0.34535472  0.16969109  0.03034952     0.30140
C360        C  0.29521418  0.17443740  0.02913587    -0.20680
C361        C  0.27010056  0.21241135  0.50204788    -0.08740
C362        C  0.30055786  0.24688294  0.47828327     0.30140
F363        F  0.28662106  0.29310096  0.46949780    -0.19260
H364        H  0.36938090  0.26546462  0.45316951     0.18510
H365        H  0.27624992  0.15067697  0.05351445     0.18510
F366        F  0.36458098  0.13572235  0.06248516    -0.19250
C367        C  0.10289548  0.17911960  0.52130089    -0.20680
C368        C  0.12331814  0.21600357  0.99064280    -0.08720
C369        C  0.08930863  0.24798938  0.96534215     0.30140
C370        C  0.04006272  0.24514986  0.97312806    -0.20680
C371        C  0.02030043  0.21014699  0.00542530    -0.08740
C372        C  0.05311811  0.17575040  0.52789760     0.30140
F373        F  0.03734734  0.13739958  0.55548467    -0.19260
H374        H  0.12577975  0.15180801  0.53985899     0.18510
H375        H  0.01673985  0.27103487  0.95331733     0.18510
F376        F  0.10269549  0.28322822  0.93267540    -0.19250
C377        C  0.20595777  0.53222902  0.80926524    -0.20680
C378        C  0.24422515  0.04046483  0.84157301    -0.08720
C379        C  0.28563811  0.05748128  0.81873409     0.30140
C380        C  0.28833036  0.06288643  0.76840175    -0.20680
C381        C  0.24996163  0.05302576  0.73653522    -0.08740
C382        C  0.20849915  0.53916335  0.75956513     0.30140
F383        F  0.16875623  0.53449266  0.73343648    -0.19260
H384        H  0.17212624  0.52128097  0.82231103     0.18510
H385        H  0.32142063  0.07508914  0.75456452     0.18510
F386        F  0.32410019  0.06964550  0.84440061    -0.19250
C387        C  0.22626284  0.07020891  0.56256487    -0.20680
C388        C  0.24209444  0.53043317  0.59420853    -0.08720
C389        C  0.25831736  0.49154880  0.57154860     0.30140
C390        C  0.25964904  0.49340047  0.52194470    -0.20680
C391        C  0.24713492  0.53470514  0.49019326    -0.08740
C392        C  0.23020855  0.07295667  0.51297307     0.30140
F393        F  0.21875999  0.11486007  0.48794272    -0.19260
H394        H  0.21091792  0.10036951  0.57604889     0.18510
H395        H  0.27343140  0.46241808  0.50831636     0.18510
F396        F  0.27566408  0.45156290  0.59735178    -0.19250
C397        C  0.05834918  0.35508795  0.81333252    -0.20680
C398        C  0.02632577  0.32590020  0.78979735    -0.08720
C399        C  0.49851412  0.35210103  0.75361815     0.30140
C400        C  0.49337483  0.40312299  0.74953433    -0.20680
C401        C  0.02171500  0.43193698  0.77671040    -0.08740
C402        C  0.05834565  0.40643499  0.80427401     0.30140
F403        F  0.09685249  0.43057075  0.81877503    -0.19260
H404        H  0.08584670  0.33794899  0.83664441     0.18510
H405        H  0.46893178  0.42040588  0.72293764     0.18510
F406        F  0.48133163  0.32912104  0.71839137    -0.19250
C407        C  0.03807256  0.10118504  0.78418621    -0.20680
C408        C  0.50281571  0.07083396  0.80412140    -0.08720
C409        C  0.46374249  0.09506686  0.81858466     0.30140
C410        C  0.46248878  0.14642876  0.81672917    -0.20680
C411        C  0.49904589  0.17729874  0.79859346    -0.08740
C412        C  0.03432294  0.15218849  0.77797098     0.30140
F413        F  0.06220113  0.17514176  0.74648624    -0.19260
H414        H  0.06845717  0.08547727  0.77124437     0.18510
H415        H  0.43214773  0.16197907  0.83012424     0.18510
F416        F  0.42701808  0.06906426  0.83624542    -0.19250
C417        C  0.43128001  0.29692793  0.10409612    -0.20680
C418        C  0.97236971  0.29161780  0.63290247    -0.08720
C419        C  0.99438776  0.24690519  0.63783632     0.30140
C420        C  0.98729961  0.21789451  0.60244460    -0.20680
C421        C  0.95945270  0.23461872  0.56224586    -0.08740
C422        C  0.42906264  0.27323902  0.06450755     0.30140
F423        F  0.40374190  0.29379837  0.02671475    -0.19260
H424        H  0.41058429  0.32941733  0.10284180     0.18510
H425        H  0.00757572  0.18551391  0.60485587     0.18510
F426        F  0.03017007  0.23669592  0.66995037    -0.19250
C427        C  0.98291465  0.10468898  0.92724832    -0.20680
C428        C  0.47776354  0.06328940  0.95847936    -0.08720
C429        C  0.45994398  0.06674213  0.00135509     0.30140
C430        C  0.44357253  0.10941396  0.01206292    -0.20680
C431        C  0.44114456  0.14935086  0.97875442    -0.08740
C432        C  0.96261037  0.14782113  0.93646315     0.30140
F433        F  0.96764682  0.18851099  0.90694748    -0.19260
H434        H  0.00389027  0.10376145  0.89760814     0.18510
H435        H  0.43626384  0.11179335  0.54785161     0.18510
F436        F  0.46112289  0.02875829  0.03437736    -0.19250
C437        C  0.34053822  0.05517660  0.47468753    -0.20680
C438        C  0.31608038  0.03442873  0.43858921    -0.08720
C439        C  0.33176942  0.48925442  0.92887354     0.30140
C440        C  0.35915726  0.46049168  0.96246733    -0.20680
C441        C  0.37154087  0.97668009  0.50564598    -0.08740
C442        C  0.36238782  0.02479360  0.51120351     0.30140
F443        F  0.37111629  0.04140537  0.55288670    -0.19260
H444        H  0.33080294  0.09079221  0.48152685     0.18510
H445        H  0.36813855  0.42459644  0.95562503     0.18510
F446        F  0.31425848  0.46947713  0.89104881    -0.19250
C447        C  0.14076792  0.00662479  0.96984690    -0.20680
C448        C  0.15447299  0.46047352  0.99065887    -0.08720
C449        C  0.18393991  0.43300959  0.46704636     0.30140
C450        C  0.20374958  0.45416559  0.42647784    -0.20680
C451        C  0.19494419  0.50284748  0.91035407    -0.08520
C452        C  0.15840204  0.02628442  0.92814269     0.30140
F453        F  0.14700451  0.07202874  0.91083637    -0.19260
H454        H  0.11895563  0.02927475  0.98742410     0.18510
H455        H  0.23147577  0.43520383  0.41222430     0.18510
F456        F  0.19706203  0.38792250  0.48527704    -0.19250
C457        C  0.04793681  0.97619996  0.87676791    -0.20680
C458        C  0.50436188  0.98593026  0.85309277    -0.08720
C459        C  0.46653021  0.45404878  0.86151833     0.30140
C460        C  0.47277637  0.41278198  0.89321996    -0.20680
C461        C  0.51703791  0.90227811  0.91603716    -0.08740
C462        C  0.05480278  0.93337554  0.90595692     0.30140
F463        F  0.09880501  0.92101330  0.92206070    -0.19260
H464        H  0.07808958  0.99887323  0.86823206     0.18510
H465        H  0.44275772  0.38981753  0.90105623     0.18510
F466        F  0.42458152  0.46166638  0.83726474    -0.19250
C467        C  0.49307236  0.57419701  0.66397222    -0.20680
C468        C  0.03535842  0.56741824  0.64314449    -0.08720
C469        C  0.07461583  0.55363120  0.67241933     0.30140
C470        C  0.06677114  0.52182852  0.71209370    -0.20680
C471        C  0.02112307  0.51580204  0.72732125    -0.08740
C472        C  0.48437534  0.54474083  0.70488343     0.30140
F473        F  0.44053808  0.54285435  0.72132160    -0.19260
H474        H  0.46365375  0.59160237  0.64355655     0.18510
H475        H  0.09519821  0.50173998  0.73110693     0.18510
F476        F  0.11805199  0.55706179  0.65521827    -0.19250
Zn477      Zn  0.47020237  0.41917008  0.49835398     1.49720
Zn478      Zn  0.05394342  0.49065911  0.03187344     1.49360
Zn479      Zn  0.48551368  0.93827259  0.09636711     1.49110
Zn480      Zn  0.06298235  0.87764930  0.54511333     1.49480
O481        O  0.01992053  0.43202670  0.04353565    -1.83500
O482        O  0.46568414  0.48229346  0.45553287    -0.74130
O483        O  0.04065845  0.54198525  0.06932398    -0.73950
O484        O  0.41870493  0.96140630  0.07658623    -0.73470
O485        O  0.03920824  0.50921825  0.96453326    -0.74150
O486        O  0.41318369  0.40558032  0.53130821    -0.73740
O487        O  0.51416878  0.99065643  0.12684395    -0.74330
O488        O  0.03475663  0.83052755  0.59433259    -0.73720
O489        O  0.11690970  0.47207442  0.05795073    -0.74480
O490        O  0.48561187  0.87368624  0.13163705    -0.73870
O491        O  0.13143020  0.89837724  0.54846761    -0.74330
O492        O  0.05931983  0.85759225  0.47945249    -0.74240
O493        O  0.48353795  0.35696377  0.47808820    -0.74030
C494        C  0.49578980  0.51663608  0.45293167     0.77760
C495        C  0.02918038  0.03216335  0.11076280     0.78250
C496        C  0.39894630  0.44502515  0.54154037     0.77210
C497        C  0.00230108  0.83382102  0.12275313     0.77580
C498        C  0.13728287  0.94279548  0.03627727     0.78720
C499        C  0.52028750  0.36578025  0.45687827     0.77770
C500        C  0.01519482  0.98801120  0.27218065     0.01190
C501        C  0.00571262  0.51466006  0.30794882     0.01190
C502        C  0.23601929  0.53233099  0.39665696     0.01190
C503        C  0.26429025  0.54081152  0.93735456     0.01190
C504        C  0.42852831  0.69400438  0.49589056     0.01190
C505        C  0.96706265  0.71447653  0.51831492     0.01190
C506        C  0.49571475  0.73395353  0.29934075     0.01190
C507        C  0.03148369  0.76937382  0.29537941     0.01190
Zn508      Zn  0.30518190  0.83931463  0.19956963     1.49720
Zn509      Zn  0.29573551  0.85736885  0.31196473     1.49360
Zn510      Zn  0.21547048  0.81140688  0.23771107     1.49110
Zn511      Zn  0.29908326  0.74591900  0.27900882     1.49480
O512        O  0.28053775  0.81686223  0.25949257    -1.83500
O513        O  0.35564023  0.88817863  0.21401213    -0.74130
O514        O  0.22888283  0.88300229  0.32505953    -0.73950
O515        O  0.19084922  0.84020214  0.17737450    -0.73470
O516        O  0.34822642  0.90213444  0.28576889    -0.74150
O517        O  0.25690841  0.87517627  0.15719057    -0.73740
O518        O  0.18128766  0.83724672  0.28786386    -0.74330
O519        O  0.24228993  0.70103796  0.28887373    -0.73720
O520        O  0.32595237  0.81423049  0.36537385    -0.74480
O521        O  0.22662206  0.74504959  0.22491574    -0.73870
O522        O  0.33444603  0.74519511  0.33957629    -0.74330
O523        O  0.33279488  0.72148399  0.22847582    -0.74240
O524        O  0.31442391  0.77784683  0.16908822    -0.74030
C525        C  0.36775783  0.87915443  0.25688138     0.77760
C526        C  0.19991312  0.87848937  0.29095272     0.78250
C527        C  0.21766023  0.85657560  0.14626363     0.77210
C528        C  0.21236289  0.71630873  0.25725453     0.77580
C529        C  0.31155220  0.77183612  0.36277883     0.78720
C530        C  0.32467979  0.73455110  0.18524663     0.77770
C531        C  0.17783435  0.71761942  0.48167427     0.01190
C532        C  0.21774825  0.72363481  0.01289599     0.01190
C533        C  0.23861318  0.02631073  0.14912766     0.01190
C534        C  0.25195174  0.56020800  0.18048659     0.01190
C535        C  0.26661105  0.69091839  0.14443701    -0.20680
C536        C  0.31465203  0.69600460  0.15665737    -0.08720
C537        C  0.34361901  0.65521163  0.16259065     0.30140
C538        C  0.32315294  0.60956988  0.16385822    -0.20680
C539        C  0.27395243  0.60500829  0.16101176    -0.08740
C540        C  0.24590041  0.64564140  0.14867320     0.30140
F541        F  0.19821683  0.64194276  0.14665306    -0.19260
H542        H  0.24352126  0.72176096  0.14092069     0.18510
H543        H  0.34508496  0.57806701  0.17286295     0.18510
F544        F  0.39017016  0.65925687  0.17457041    -0.19250
C545        C  0.25199907  0.93145482  0.24415966    -0.20680
C546        C  0.20728937  0.91148156  0.24851224    -0.08720
C547        C  0.17200133  0.92540161  0.21372069     0.30140
C548        C  0.18266547  0.95986894  0.17618978    -0.20680
C549        C  0.22882531  0.97836935  0.17311562    -0.08740
C550        C  0.26439652  0.95923448  0.20459540     0.30140
F551        F  0.30919220  0.97642462  0.20229040    -0.19260
H552        H  0.27606640  0.92971573  0.27348632     0.18510
H553        H  0.15479544  0.97420791  0.15176466     0.18510
F554        F  0.12749022  0.90804783  0.21734354    -0.19250
C555        C  0.25264835  0.82709706  0.08175341    -0.20680
C556        C  0.21130043  0.83726502  0.10179185    -0.08720
C557        C  0.17049895  0.81075113  0.09200646     0.30140
C558        C  0.17216495  0.77340677  0.06441839    -0.20680
C559        C  0.21507026  0.75961848  0.04783838    -0.08740
C560        C  0.25599472  0.78537917  0.06151759     0.30140
F561        F  0.30030104  0.76791797  0.06264595    -0.19260
H562        H  0.28531848  0.84508316  0.09040993     0.18510
H563        H  0.14015335  0.75370383  0.06010595     0.18510
F564        F  0.12972063  0.81869062  0.11197195    -0.19250
C565        C  0.24970438  0.71061992  0.38283641    -0.20680
C566        C  0.26346889  0.75905368  0.37643357    -0.08720
C567        C  0.23497448  0.79362331  0.39288807     0.30140
C568        C  0.19768647  0.77913966  0.41984979    -0.20680
C569        C  0.18929781  0.73026586  0.43268910    -0.08740
C570        C  0.21119962  0.69672637  0.40902066     0.30140
F571        F  0.19664173  0.65056768  0.41241110    -0.19260
H572        H  0.27083873  0.68299433  0.37103013     0.18510
H573        H  0.18326085  0.80566804  0.43941132     0.18510
F574        F  0.25134366  0.83854705  0.39707307    -0.19250
C575        C  0.09442233  0.76685435  0.24394295    -0.20680
C576        C  0.07851300  0.75429549  0.28829666    -0.08720
C577        C  0.10398717  0.72237789  0.32114653     0.30140
C578        C  0.14598768  0.70343725  0.30893048    -0.20680
C579        C  0.16241701  0.71708838  0.26475011    -0.08740
C580        C  0.13400025  0.74526569  0.23110531     0.30140
F581        F  0.14540058  0.75301208  0.18607110    -0.19260
H582        H  0.07426321  0.79069465  0.21822202     0.18510
H583        H  0.16602728  0.67896963  0.33359524     0.18510
F584        F  0.08763643  0.70893487  0.36384120    -0.19250
C585        C  0.42349045  0.75804599  0.25663023    -0.20680
C586        C  0.44834899  0.75384046  0.29949776    -0.08720
C587        C  0.43814599  0.78465953  0.33247724     0.30140
C588        C  0.40915314  0.82421389  0.31912330    -0.20680
C589        C  0.38968501  0.83265205  0.27350327    -0.08740
C590        C  0.39721078  0.79912420  0.24242860     0.30140
F591        F  0.39000349  0.81140137  0.19611426    -0.19260
H592        H  0.43284509  0.73576954  0.23042323     0.18510
H593        H  0.40534292  0.85047734  0.34306337     0.18510
F594        F  0.46288034  0.78185166  0.37400132    -0.19250
C595        C  0.34979743  0.73870230  0.97425764    -0.20680
C596        C  0.37457742  0.70125050  0.00173715    -0.08720
C597        C  0.34527745  0.66978511  0.53038230     0.30140
C598        C  0.29513651  0.67453764  0.52916816    -0.20680
C599        C  0.27035609  0.71227226  0.00196529    -0.08740
C600        C  0.30080633  0.74674337  0.97819069     0.30140
F601        F  0.28685356  0.79295412  0.96937513    -0.19260
H602        H  0.36962953  0.76533541  0.95308380     0.18510
H603        H  0.27617019  0.65078977  0.55355641     0.18510
F604        F  0.36450489  0.63583048  0.56253155    -0.19250
C605        C  0.10314194  0.67895183  0.02114166    -0.20680
C606        C  0.12324423  0.71609667  0.49067327    -0.08720
C607        C  0.08923061  0.74806797  0.46536026     0.30140
C608        C  0.03998267  0.74521608  0.47313701    -0.20680
C609        C  0.02022407  0.71021595  0.50544024    -0.08740
C610        C  0.05336791  0.67561151  0.02776337     0.30140
F611        F  0.03758510  0.63726097  0.05534315    -0.19260
H612        H  0.12601614  0.65161447  0.03967191     0.18510
H613        H  0.01665581  0.77109018  0.45331586     0.18510
F614        F  0.10261720  0.78330579  0.43269204    -0.19250
C615        C  0.20602082  0.03203027  0.30917964    -0.20680
C616        C  0.24408634  0.54054442  0.34163973    -0.08720
C617        C  0.28548359  0.55763736  0.31881575     0.30140
C618        C  0.28820602  0.56302023  0.26848738    -0.20680
C619        C  0.24988378  0.55305712  0.23660956    -0.08740
C620        C  0.20858542  0.03895259  0.25948483     0.30140
F621        F  0.16888788  0.03408982  0.23335045    -0.19260
H622        H  0.17221474  0.02095769  0.32220940     0.18510
H623        H  0.32128244  0.57528918  0.25466301     0.18510
F624        F  0.32389821  0.56990390  0.34449308    -0.19250
C625        C  0.22625691  0.57018590  0.06264882    -0.20680
C626        C  0.24224525  0.03032948  0.09414360    -0.08720
C627        C  0.25850120  0.99145224  0.07149518     0.30140
C628        C  0.25983945  0.99329598  0.02189287    -0.20680
C629        C  0.24730861  0.03459015  0.99013356    -0.08740
C630        C  0.23019732  0.57293145  0.01305825     0.30140
F631        F  0.21863609  0.61480166  0.98802461    -0.19260
H632        H  0.21088811  0.60033830  0.07612400     0.18510
H633        H  0.27363748  0.96231667  0.00827195     0.18510
F634        F  0.27587174  0.95148283  0.09730957    -0.19250
C635        C  0.05823837  0.85509173  0.31337298    -0.20680
C636        C  0.02624521  0.82589484  0.28981410    -0.08720
C637        C  0.49845795  0.85208656  0.25360730     0.30140
C638        C  0.49329987  0.90310693  0.24952201    -0.20680
C639        C  0.02160141  0.93192914  0.27672494    -0.08740
C640        C  0.05822278  0.90643864  0.30431337     0.30140
F641        F  0.09671180  0.93058532  0.31883922    -0.19260
H642        H  0.08572384  0.83796040  0.33670549     0.18510
H643        H  0.46887626  0.92038345  0.22290318     0.18510
F644        F  0.48131957  0.82910302  0.21836187    -0.19250
C645        C  0.03796958  0.60117094  0.28420362    -0.20680
C646        C  0.50268969  0.57083168  0.30411217    -0.08720
C647        C  0.46362065  0.59507695  0.31856671     0.30140
C648        C  0.46238874  0.64643777  0.31672434    -0.20680
C649        C  0.49896565  0.67729563  0.29861108    -0.08740
C650        C  0.03424508  0.65217646  0.27800216     0.30140
F651        F  0.06215505  0.67512614  0.24654540    -0.19260
H652        H  0.06835851  0.58545444  0.27127962     0.18510
H653        H  0.43204913  0.66199687  0.33011360     0.18510
F654        F  0.42687862  0.56908708  0.33620682    -0.19250
C655        C  0.43118046  0.79703111  0.60406074    -0.20680
C656        C  0.97262912  0.79148933  0.13287425    -0.08720
C657        C  0.99469221  0.74679961  0.13777210     0.30140
C658        C  0.98762748  0.71781043  0.10236126    -0.20680
C659        C  0.95974259  0.73452122  0.06218535    -0.08740
C660        C  0.42897832  0.77332559  0.56448447     0.30140
F661        F  0.40366513  0.79386854  0.52667917    -0.19260
H662        H  0.41047994  0.82951908  0.60278963     0.18510
H663        H  0.00794980  0.68546198  0.10473987     0.18510
F664        F  0.03050973  0.73661527  0.16984918    -0.19250
C665        C  0.98277547  0.60472634  0.42724802    -0.20680
C666        C  0.47759922  0.56332607  0.45847199    -0.08720
C667        C  0.45978965  0.56678298  0.50135134     0.30140
C668        C  0.44346294  0.60946739  0.51207431    -0.20680
C669        C  0.44105807  0.64941051  0.47877232    -0.08740
C670        C  0.96250708  0.64787104  0.43647423     0.30140
F671        F  0.96755451  0.68855738  0.40695682    -0.19260
H672        H  0.00374207  0.60378779  0.39760339     0.18510
H673        H  0.43641821  0.61169226  0.04776927     0.18510
F674        F  0.46094323  0.52878968  0.53436357    -0.19250
C675        C  0.34060377  0.55510557  0.97476493    -0.20680
C676        C  0.31611648  0.53437845  0.93867079    -0.08720
C677        C  0.33175908  0.98930626  0.42881675     0.30140
C678        C  0.35911106  0.96055191  0.46244788    -0.20680
C679        C  0.37163261  0.47660095  0.00566333    -0.08740
C680        C  0.36249212  0.52471163  0.01124852     0.30140
F681        F  0.37127515  0.54131373  0.05292918    -0.19260
H682        H  0.33087976  0.59071553  0.98162790     0.18510
H683        H  0.36810406  0.92465211  0.45562884     0.18510
F684        F  0.31428744  0.96951652  0.39098419    -0.19250
C685        C  0.14058146  0.50670242  0.46989009    -0.20680
C686        C  0.15437709  0.96052322  0.49055100    -0.08720
C687        C  0.18411359  0.93292280  0.96700958     0.30140
C688        C  0.20391150  0.95406564  0.92642909    -0.20680
C689        C  0.19491232  0.00283520  0.41026387    -0.08520
C690        C  0.15822902  0.52637624  0.42819708     0.30140
F691        F  0.14682338  0.57211897  0.41089343    -0.19260
H692        H  0.11875004  0.52933933  0.48746214     0.18510
H693        H  0.23163059  0.93509653  0.91217295     0.18510
F694        F  0.19723320  0.88783657  0.98524555    -0.19250
C695        C  0.04776624  0.47619652  0.37677646    -0.20680
C696        C  0.50419963  0.48593092  0.35308486    -0.08720
C697        C  0.46633462  0.95406457  0.36150336     0.30140
C698        C  0.47257989  0.91281348  0.39322455    -0.20680
C699        C  0.51683735  0.40229592  0.41605936    -0.08740
C700        C  0.05461403  0.43338074  0.40598333     0.30140
F701        F  0.09860741  0.42102581  0.42212741    -0.19260
H702        H  0.07792592  0.49886322  0.36824927     0.18510
H703        H  0.44256538  0.88984139  0.40105758     0.18510
F704        F  0.42439415  0.96166043  0.33722990    -0.19250
C705        C  0.49312446  0.07412377  0.16389752    -0.20680
C706        C  0.03545855  0.06733310  0.14315773    -0.08720
C707        C  0.07466941  0.05357062  0.17250589     0.30140
C708        C  0.06675981  0.02181022  0.21219232    -0.20680
C709        C  0.02107844  0.01578440  0.22733217    -0.08740
C710        C  0.48435993  0.04470184  0.20481039     0.30140
F711        F  0.44048758  0.04282101  0.22116667    -0.19260
H712        H  0.46373429  0.09150707  0.14341718     0.18510
H713        H  0.09515943  0.00175055  0.23128379     0.18510
F714        F  0.11813528  0.05696995  0.15537056    -0.19250
Zn715      Zn  0.47040287  0.41908964  0.99834639     1.49720
Zn716      Zn  0.05376763  0.49073674  0.53184485     1.49360
Zn717      Zn  0.48535314  0.93837805  0.59636861     1.49110
Zn718      Zn  0.06315803  0.87756346  0.04510586     1.49480
O719        O  0.01973348  0.43211231  0.54352807    -1.83500
O720        O  0.46588451  0.48221932  0.95554582    -0.74130
O721        O  0.04053384  0.54207703  0.56929928    -0.73950
O722        O  0.41853620  0.96150074  0.57661422    -0.73470
O723        O  0.03901233  0.50928554  0.46450839    -0.74150
O724        O  0.41335766  0.40549173  0.03125701    -0.73740
O725        O  0.51402353  0.99076718  0.62682210    -0.74330
O726        O  0.03490615  0.83043023  0.09430272    -0.73720
O727        O  0.11673786  0.47214172  0.55789449    -0.74480
O728        O  0.48545885  0.87379981  0.63164893    -0.73870
O729        O  0.13160499  0.89829885  0.04851039    -0.74330
O730        O  0.05951863  0.85754875  0.97942564    -0.74240
O731        O  0.48376480  0.35689863  0.97806152    -0.74030
C732        C  0.49598858  0.51656271  0.95294158     0.77760
C733        C  0.02906372  0.03226395  0.61074564     0.78250
C734        C  0.39911741  0.44492998  0.04150487     0.77210
C735        C  0.00214289  0.83393024  0.62277096     0.77580
C736        C  0.13711864  0.94287184  0.53623237     0.78720
C737        C  0.52051190  0.36573998  0.95685285     0.77770
C738        C  0.01532570  0.98801867  0.77218455     0.01190
C739        C  0.00588039  0.51466178  0.80796229     0.01190
C740        C  0.23611650  0.53228987  0.89666848     0.01190
C741        C  0.26418197  0.54087055  0.43734203     0.01190
C742        C  0.42869276  0.69392646  0.99585455     0.01190
C743        C  0.96723088  0.71439858  0.01827303     0.01190
C744        C  0.49584736  0.73395867  0.79932980     0.01190
C745        C  0.03161607  0.76937897  0.79535756     0.01190
Zn746      Zn  0.30528223  0.83936048  0.69958011     1.49720
Zn747      Zn  0.29591042  0.85742125  0.81198996     1.49360
Zn748      Zn  0.21560154  0.81147125  0.73777813     1.49110
Zn749      Zn  0.29922515  0.74596870  0.77899627     1.49480
O750        O  0.28067478  0.81691577  0.75951314    -1.83500
O751        O  0.35576401  0.88820265  0.71403682    -0.74130
O752        O  0.22909322  0.88312929  0.82509002    -0.73950
O753        O  0.19093091  0.84027458  0.67746525    -0.73470
O754        O  0.34841556  0.90217295  0.78580224    -0.74150
O755        O  0.25698840  0.87522105  0.65721569    -0.73740
O756        O  0.18148760  0.83730299  0.78797835    -0.74330
O757        O  0.24243297  0.70107868  0.78886563    -0.73720
O758        O  0.32610373  0.81426281  0.86540272    -0.74480
O759        O  0.22675699  0.74513419  0.72493719    -0.73870
O760        O  0.33463670  0.74526637  0.83953259    -0.74330
O761        O  0.33290855  0.72153841  0.72844446    -0.74240
O762        O  0.31448421  0.77789565  0.66907167    -0.74030
C763        C  0.36790890  0.87917643  0.75690201     0.77760
C764        C  0.20008298  0.87856711  0.79102232     0.78250
C765        C  0.21770207  0.85667024  0.64632664     0.77210
C766        C  0.21250418  0.71636042  0.75725240     0.77580
C767        C  0.31172732  0.77186697  0.86276214     0.78720
C768        C  0.32474645  0.73459872  0.68522153     0.77770
C769        C  0.17799933  0.71748965  0.98159993     0.01190
C770        C  0.21759297  0.72376778  0.51295661     0.01190
C771        C  0.23854722  0.02637111  0.64911745     0.01190
C772        C  0.25193355  0.56025727  0.68048312     0.01190
C773        C  0.26662995  0.69097528  0.64444696    -0.20680
C774        C  0.31467806  0.69604512  0.65664727    -0.08720
C775        C  0.34362828  0.65523933  0.66257496     0.30140
C776        C  0.32314494  0.60960454  0.66385000    -0.20680
C777        C  0.27394285  0.60505829  0.66101511    -0.08740
C778        C  0.24590300  0.64570379  0.64869049     0.30140
F779        F  0.19821841  0.64202166  0.64667981    -0.19260
H780        H  0.24355324  0.72182827  0.64092937     0.18510
H781        H  0.34506916  0.57809396  0.67284091     0.18510
F782        F  0.39018609  0.65926739  0.67453344    -0.19250
C783        C  0.25208670  0.93147171  0.74407334    -0.20680
C784        C  0.20738403  0.91154103  0.74855389    -0.08720
C785        C  0.17202417  0.92547947  0.71383768     0.30140
C786        C  0.18262108  0.95994913  0.67628756    -0.20680
C787        C  0.22877789  0.97843004  0.67310908    -0.08740
C788        C  0.26441046  0.95927249  0.70450617     0.30140
F789        F  0.30920724  0.97643681  0.70209577    -0.19260
H790        H  0.27631788  0.92965144  0.77340058     0.18510
H791        H  0.15470109  0.97429779  0.65191203     0.18510
F792        F  0.12752028  0.90813353  0.71755325    -0.19250
C793        C  0.25255404  0.82727840  0.58171389    -0.20680
C794        C  0.21124297  0.83744238  0.60181894    -0.08720
C795        C  0.17042096  0.81093866  0.59207153     0.30140
C796        C  0.17204490  0.77359361  0.56447232    -0.20680
C797        C  0.21493618  0.75977439  0.54788153    -0.08740
C798        C  0.25587449  0.78553013  0.56152632     0.30140
F799        F  0.30017064  0.76803844  0.56267352    -0.19260
H800        H  0.28523802  0.84526443  0.59032326     0.18510
H801        H  0.14001902  0.75390961  0.56016295     0.18510
F802        F  0.12967112  0.81888517  0.61208687    -0.19250
C803        C  0.24994111  0.71058896  0.88279341    -0.20680
C804        C  0.26365085  0.75903770  0.87639776    -0.08720
C805        C  0.23511317  0.79357067  0.89284949     0.30140
C806        C  0.19783118  0.77903994  0.91980021    -0.20680
C807        C  0.18947931  0.73015492  0.93262162    -0.08740
C808        C  0.21143891  0.69664485  0.90895915     0.30140
F809        F  0.19694509  0.65046595  0.91233375    -0.19260
H810        H  0.27111426  0.68299138  0.87098977     0.18510
H811        H  0.18338501  0.80554729  0.93937257     0.18510
F812        F  0.25143714  0.83850448  0.89705399    -0.19250
C813        C  0.09454570  0.76684342  0.74390836    -0.20680
C814        C  0.07864092  0.75429480  0.78826626    -0.08720
C815        C  0.10411639  0.72238181  0.82111896     0.30140
C816        C  0.14612025  0.70344613  0.80890840    -0.20680
C817        C  0.16255334  0.71709927  0.76473052    -0.08740
C818        C  0.13413101  0.74526114  0.73107756     0.30140
F819        F  0.14554289  0.75301266  0.68604643    -0.19260
H820        H  0.07438332  0.79067556  0.71818309     0.18510
H821        H  0.16616286  0.67898886  0.83357974     0.18510
F822        F  0.08776578  0.70894163  0.86381403    -0.19250
C823        C  0.42360433  0.75804894  0.75664534    -0.20680
C824        C  0.44848145  0.75384378  0.79950351    -0.08720
C825        C  0.43829392  0.78466455  0.83248609     0.30140
C826        C  0.40930890  0.82422727  0.81913777    -0.20680
C827        C  0.38982527  0.83266680  0.77352272    -0.08740
C828        C  0.39732216  0.79912900  0.74245206     0.30140
F829        F  0.39007968  0.81139696  0.69614204    -0.19260
H830        H  0.43294158  0.73576715  0.73043655     0.18510
H831        H  0.40551069  0.85049141  0.84307918     0.18510
F832        F  0.46303201  0.78184371  0.87400887    -0.19250
C833        C  0.34963827  0.73879183  0.47428679    -0.20680
C834        C  0.37441336  0.70133564  0.50176501    -0.08720
C835        C  0.34544378  0.66969612  0.03035666     0.30140
C836        C  0.29530010  0.67442822  0.02912660    -0.20680
C837        C  0.27019520  0.71238761  0.50201215    -0.08740
C838        C  0.30065025  0.74684614  0.47822612     0.30140
F839        F  0.28671165  0.79306106  0.46941080    -0.19260
H840        H  0.36947288  0.76541829  0.45310796     0.18510
H841        H  0.27633233  0.65067267  0.05351014     0.18510
F842        F  0.36467192  0.63576508  0.06253027    -0.19250
C843        C  0.10298913  0.67908632  0.52124127    -0.20680
C844        C  0.12340489  0.71597037  0.99058789    -0.08720
C845        C  0.08939728  0.74797045  0.96530260     0.30140
C846        C  0.04015320  0.74513891  0.97309803    -0.20680
C847        C  0.02038962  0.71013063  0.00538925    -0.08740
C848        C  0.05321271  0.67572518  0.52784575     0.30140
F849        F  0.03743757  0.63737587  0.55543212    -0.19260
H850        H  0.12587034  0.65176614  0.53978961     0.18510
H851        H  0.01683259  0.77103435  0.95329864     0.18510
F852        F  0.10278169  0.78321611  0.93264231    -0.19250
C853        C  0.20603437  0.03213733  0.80919510    -0.20680
C854        C  0.24415631  0.54052960  0.84164457    -0.08720
C855        C  0.28557990  0.55751622  0.81880642     0.30140
C856        C  0.28827377  0.56291547  0.76847457    -0.20680
C857        C  0.24989774  0.55307891  0.73660754    -0.08740
C858        C  0.20857290  0.03907667  0.75949560     0.30140
F859        F  0.16883550  0.03436909  0.73337095    -0.19260
H860        H  0.17220977  0.02116204  0.82224069     0.18510
H861        H  0.32137123  0.57509420  0.75463740     0.18510
F862        F  0.32405287  0.56965413  0.84447239    -0.19250
C863        C  0.22620048  0.57025651  0.56264528    -0.20680
C864        C  0.24215956  0.03038902  0.59413010    -0.08720
C865        C  0.25838357  0.99150294  0.57147290     0.30140
C866        C  0.25970822  0.99334739  0.52186965    -0.20680
C867        C  0.24719780  0.03465114  0.49011691    -0.08740
C868        C  0.23013425  0.57300448  0.51305270     0.30140
F869        F  0.21864193  0.61489779  0.48802604    -0.19260
H870        H  0.21085877  0.60041835  0.57612900     0.18510
H871        H  0.27348933  0.96236314  0.50824340     0.18510
F872        F  0.27574135  0.95152360  0.59727793    -0.19250
C873        C  0.05838886  0.85509701  0.81334545    -0.20680
C874        C  0.02638283  0.82590104  0.78980002    -0.08720
C875        C  0.49857924  0.85209520  0.75360987     0.30140
C876        C  0.49342156  0.90311534  0.74952790    -0.20680
C877        C  0.02173740  0.93193689  0.77671812    -0.08740
C878        C  0.05837008  0.90644496  0.80428913     0.30140
F879        F  0.09686635  0.93059176  0.81879785    -0.19260
H880        H  0.08588459  0.83796494  0.83666430     0.18510
H881        H  0.46898413  0.92039183  0.72292223     0.18510
F882        F  0.48142024  0.82911134  0.71837568    -0.19250
C883        C  0.03811048  0.60117907  0.78418873    -0.20680
C884        C  0.50285173  0.57083428  0.80413112    -0.08720
C885        C  0.46378844  0.59507448  0.81860459     0.30140
C886        C  0.46254578  0.64643611  0.81675079    -0.20680
C887        C  0.49910403  0.67729969  0.79860730    -0.08740
C888        C  0.03437275  0.65218439  0.77797883     0.30140
F889        F  0.06225489  0.67513708  0.74649654    -0.19260
H890        H  0.06848749  0.58546484  0.77123920     0.18510
H891        H  0.43221152  0.66199218  0.83015266     0.18510
F892        F  0.42706172  0.56907934  0.83627102    -0.19250
C893        C  0.43134347  0.79689901  0.10407330    -0.20680
C894        C  0.97245300  0.79161107  0.63287937    -0.08720
C895        C  0.99449676  0.74691149  0.63780582     0.30140
C896        C  0.98742831  0.71790494  0.60240849    -0.20680
C897        C  0.95956390  0.73461363  0.56221682    -0.08740
C898        C  0.42914012  0.77321368  0.06448247     0.30140
F899        F  0.40380505  0.79375999  0.02669291    -0.19260
H900        H  0.41062950  0.82937589  0.10282222     0.18510
H901        H  0.00772921  0.68554068  0.60481100     0.18510
F902        F  0.03028623  0.73671891  0.66991531    -0.19250
C903        C  0.98300020  0.60465717  0.92724601    -0.20680
C904        C  0.47778939  0.56325362  0.95845891    -0.08720
C905        C  0.45993920  0.56670773  0.00132011     0.30140
C906        C  0.44360008  0.60938959  0.01203016    -0.20680
C907        C  0.44122256  0.64933554  0.97873216    -0.08740
C908        C  0.96271984  0.64780214  0.93645751     0.30140
F909        F  0.96781186  0.68849692  0.90696077    -0.19260
H910        H  0.00399907  0.60372139  0.89762218     0.18510
H911        H  0.43629283  0.61177177  0.54781746     0.18510
F912        F  0.46108337  0.52871914  0.03433767    -0.19250
C913        C  0.34048290  0.55519946  0.47475290    -0.20680
C914        C  0.31600982  0.53446429  0.43865607    -0.08720
C915        C  0.33185184  0.98921969  0.92882443     0.30140
C916        C  0.35922825  0.96046797  0.96243804    -0.20680
C917        C  0.37148697  0.47669456  0.50568015    -0.08740
C918        C  0.36234795  0.52480828  0.51125240     0.30140
F919        F  0.37111087  0.54141550  0.55293318    -0.19260
H920        H  0.33075629  0.59081298  0.48160398     0.18510
H921        H  0.36821815  0.92456989  0.95561141     0.18510
F922        F  0.31435619  0.96942828  0.89100188    -0.19250
C923        C  0.14072202  0.50664873  0.96994304    -0.20680
C924        C  0.15451536  0.96045687  0.99058620    -0.08720
C925        C  0.18398616  0.93297952  0.46699549     0.30140
C926        C  0.20380968  0.95411341  0.42642587    -0.20680
C927        C  0.19500888  0.00279031  0.91028086    -0.08520
C928        C  0.15834254  0.52632885  0.92823906     0.30140
F929        F  0.14694169  0.57208034  0.91095949    -0.19260
H930        H  0.11891542  0.52928844  0.98753803     0.18510
H931        H  0.23154130  0.93514147  0.41219144     0.18510
F932        F  0.19709864  0.88789673  0.48524882    -0.19250
C933        C  0.04796059  0.47618065  0.87676747    -0.20680
C934        C  0.50438557  0.48592197  0.85309509    -0.08720
C935        C  0.46651065  0.95405342  0.86151874     0.30140
C936        C  0.47276292  0.91278995  0.89322318    -0.20680
C937        C  0.51704738  0.40226556  0.91604044    -0.08740
C938        C  0.05481886  0.43335498  0.90595807     0.30140
F939        F  0.09881785  0.42098986  0.92207123    -0.19260
H940        H  0.07811708  0.49884902  0.86823296     0.18510
H941        H  0.44274827  0.88982008  0.90106102     0.18510
F942        F  0.42456169  0.96166275  0.83726397    -0.19250
C943        C  0.49311249  0.07419284  0.66396836    -0.20680
C944        C  0.03540638  0.06741268  0.64315510    -0.08720
C945        C  0.07465531  0.05362183  0.67243981     0.30140
C946        C  0.06679821  0.02182719  0.71211644    -0.20680
C947        C  0.02114355  0.01579949  0.72732663    -0.08740
C948        C  0.48440102  0.04473490  0.70487402     0.30140
F949        F  0.44055570  0.04284475  0.72129375    -0.19260
H950        H  0.46369954  0.09159755  0.64354282     0.18510
H951        H  0.09522028  0.00174488  0.73114520     0.18510
F952        F  0.11809508  0.05704010  0.65524644    -0.19250
Zn953      Zn  0.97024400  0.91918533  0.49834504     1.49720
Zn954      Zn  0.55397773  0.99067923  0.03184657     1.49360
Zn955      Zn  0.98547985  0.43826181  0.09638449     1.49110
Zn956      Zn  0.56293366  0.37762387  0.54514093     1.49480
O957        O  0.51995592  0.93204288  0.04351458    -1.83500
O958        O  0.96570151  0.98232162  0.45553585    -0.74130
O959        O  0.54071981  0.04198857  0.06932570    -0.73950
O960        O  0.91867358  0.46138608  0.07660110    -0.73470
O961        O  0.53920541  0.00927867  0.96451959    -0.74150
O962        O  0.91323718  0.90557495  0.53131133    -0.73740
O963        O  0.01411931  0.49065881  0.12685135    -0.74330
O964        O  0.53468888  0.33050481  0.59435422    -0.73720
O965        O  0.61696473  0.97210599  0.05787190    -0.74480
O966        O  0.98558726  0.37368583  0.13167050    -0.73870
O967        O  0.63138643  0.39834636  0.54849997    -0.74330
O968        O  0.55928316  0.35757839  0.47947671    -0.74240
O969        O  0.98357625  0.85697200  0.47808790    -0.74030
C970        C  0.99578838  0.01668187  0.45293712     0.77760
C971        C  0.52911977  0.53216733  0.11076206     0.78250
C972        C  0.89899219  0.94502357  0.54152454     0.77210
C973        C  0.50225673  0.33381523  0.12277868     0.77580
C974        C  0.63724585  0.44278575  0.03634645     0.78720
C975        C  0.02031714  0.86579111  0.45686616     0.77770
C976        C  0.51518487  0.48801197  0.27218187     0.01190
C977        C  0.50569747  0.01466090  0.30794001     0.01190
C978        C  0.73609193  0.03226821  0.39658420     0.01190
C979        C  0.76435570  0.04075474  0.93728233     0.01190
C980        C  0.92843129  0.19401522  0.49590979     0.01190
C981        C  0.46696038  0.21448703  0.51834277     0.01190
C982        C  0.99566303  0.23395103  0.29933205     0.01190
C983        C  0.53142963  0.26937312  0.29537024     0.01190
Zn984      Zn  0.80512194  0.33932941  0.19964112     1.49720
Zn985      Zn  0.79568770  0.35737272  0.31204398     1.49360
Zn986      Zn  0.71541151  0.31143708  0.23778249     1.49110
Zn987      Zn  0.79902112  0.24592456  0.27906958     1.49480
O988        O  0.78048128  0.31687597  0.25956384    -1.83500
O989        O  0.85557192  0.38819761  0.21409782    -0.74130
O990        O  0.72884743  0.38303699  0.32513424    -0.73950
O991        O  0.69077283  0.34025884  0.17745661    -0.73470
O992        O  0.84819137  0.40213168  0.28586636    -0.74150
O993        O  0.75684414  0.37520301  0.15727442    -0.73740
O994        O  0.68125099  0.33727109  0.28795054    -0.74330
O995        O  0.74223038  0.20104361  0.28890562    -0.73720
O996        O  0.82588971  0.31421273  0.36544578    -0.74480
O997        O  0.72657772  0.24508932  0.22496306    -0.73870
O998        O  0.83435885  0.24517127  0.33965415    -0.74330
O999        O  0.83273436  0.22148725  0.22853794    -0.74240
O1000       O  0.81436240  0.27785727  0.16915730    -0.74030
C1001       C  0.86770331  0.37915670  0.25696239     0.77760
C1002       C  0.69987019  0.37851785  0.29103428     0.78250
C1003       C  0.71759733  0.35660109  0.14634620     0.77210
C1004       C  0.71231283  0.21632637  0.25728220     0.77580
C1005       C  0.81146985  0.27182514  0.36284824     0.78720
C1006       C  0.82462254  0.23456057  0.18530944     0.77770
C1007       C  0.67773661  0.21765536  0.48172660     0.01190
C1008       C  0.71766630  0.22365712  0.01295008     0.01190
C1009       C  0.73852811  0.52635357  0.14920186     0.01190
C1010       C  0.75202322  0.06016923  0.18041446     0.01190
C1011       C  0.76657909  0.19090380  0.14448236    -0.20680
C1012       C  0.81461512  0.19601874  0.15670836    -0.08720
C1013       C  0.84361555  0.15525115  0.16260190     0.30140
C1014       C  0.82318794  0.10959529  0.16381012    -0.20680
C1015       C  0.77399109  0.10499127  0.16094738    -0.08740
C1016       C  0.74590743  0.14560826  0.14864997     0.30140
F1017       F  0.69822687  0.14186748  0.14661332    -0.19260
H1018       H  0.74346301  0.22172417  0.14100200     0.18510
H1019       H  0.84514421  0.07810647  0.17278981     0.18510
F1020       F  0.89016100  0.15932336  0.17459401    -0.19250
C1021       C  0.75194138  0.43147490  0.24421399    -0.20680
C1022       C  0.70723100  0.41151362  0.24859181    -0.08720
C1023       C  0.67192779  0.42544673  0.21381901     0.30140
C1024       C  0.68257906  0.45991823  0.17628716    -0.20680
C1025       C  0.72873886  0.47841322  0.17319217    -0.08740
C1026       C  0.76432168  0.45926945  0.20465381     0.30140
F1027       F  0.80911919  0.47644969  0.20232720    -0.19260
H1028       H  0.77604585  0.42970247  0.27353334     0.18510
H1029       H  0.65469995  0.47425911  0.15187191     0.18510
F1030       F  0.62741798  0.40809447  0.21745777    -0.19250
C1031       C  0.75260910  0.32705100  0.08188011    -0.20680
C1032       C  0.71125654  0.33724641  0.10189537    -0.08720
C1033       C  0.67044541  0.31075444  0.09209541     0.30140
C1034       C  0.67209779  0.27342151  0.06449205    -0.20680
C1035       C  0.71500007  0.25961655  0.04791739    -0.08740
C1036       C  0.75593646  0.28534457  0.06162274     0.30140
F1037       F  0.80023504  0.26786505  0.06274208    -0.19260
H1038       H  0.78528643  0.34501594  0.09055273     0.18510
H1039       H  0.64007366  0.25374611  0.06015448     0.18510
F1040       F  0.62966365  0.31871734  0.11204478    -0.19250
C1041       C  0.74957876  0.21064064  0.38288303    -0.20680
C1042       C  0.76337683  0.25906648  0.37649501    -0.08720
C1043       C  0.73490153  0.29364984  0.39295482     0.30140
C1044       C  0.69760494  0.27918395  0.41991255    -0.20680
C1045       C  0.68919264  0.23031401  0.43274235    -0.08740
C1046       C  0.71106209  0.19676920  0.40906058     0.30140
F1047       F  0.69645678  0.15062633  0.41243886    -0.19260
H1048       H  0.77069513  0.18300338  0.37107353     0.18510
H1049       H  0.68318516  0.30571526  0.43947478     0.18510
F1050       F  0.75129222  0.33856508  0.39714258    -0.19250
C1051       C  0.59437314  0.26685357  0.24393987    -0.20680
C1052       C  0.57845861  0.25429563  0.28829182    -0.08720
C1053       C  0.60392771  0.22237859  0.32114606     0.30140
C1054       C  0.64592736  0.20343407  0.30893506    -0.20680
C1055       C  0.66236434  0.21708761  0.26475922    -0.08740
C1056       C  0.63395382  0.24526430  0.23110955     0.30140
F1057       F  0.64536697  0.25301191  0.18607969    -0.19260
H1058       H  0.57421651  0.29069256  0.21821550     0.18510
H1059       H  0.66596405  0.17896561  0.33360105     0.18510
F1060       F  0.58757232  0.20893961  0.36383964    -0.19250
C1061       C  0.92342828  0.25805533  0.25664772    -0.20680
C1062       C  0.94829837  0.25383428  0.29950901    -0.08720
C1063       C  0.93810367  0.28463706  0.33250562     0.30140
C1064       C  0.90909880  0.32418656  0.31917798    -0.20680
C1065       C  0.88962478  0.33264648  0.27356200    -0.08740
C1066       C  0.89714617  0.29913682  0.24246821     0.30140
F1067       F  0.88993537  0.31143762  0.19615698    -0.19260
H1068       H  0.93277750  0.23579268  0.23042755     0.18510
H1069       H  0.90529126  0.35043557  0.34313283     0.18510
F1070       F  0.96285877  0.28182509  0.37401832    -0.19250
C1071       C  0.84971349  0.23874181  0.97430535    -0.20680
C1072       C  0.87449002  0.20126547  0.00175407    -0.08720
C1073       C  0.84517858  0.16977527  0.53037372     0.30140
C1074       C  0.79504087  0.17454299  0.52917658    -0.20680
C1075       C  0.77027109  0.21230006  0.00200248    -0.08740
C1076       C  0.80072355  0.24678451  0.97824943     0.30140
F1077       F  0.78677368  0.29299878  0.96946644    -0.19260
H1078       H  0.86954662  0.26538620  0.95314591     0.18510
H1079       H  0.77607803  0.15079067  0.55356017     0.18510
F1080       F  0.86440409  0.13578093  0.56248297    -0.19250
C1081       C  0.60305789  0.17898786  0.02120094    -0.20680
C1082       C  0.62314730  0.21612498  0.49072558    -0.08720
C1083       C  0.58913107  0.24808057  0.46539620     0.30140
C1084       C  0.53988162  0.24522143  0.47316498    -0.20680
C1085       C  0.52012502  0.21022908  0.50547694    -0.08740
C1086       C  0.55328264  0.17563831  0.02781291     0.30140
F1087       F  0.53750345  0.13728380  0.05538993    -0.19260
H1088       H  0.62593481  0.15165789  0.03973950     0.18510
H1089       H  0.51655221  0.27108419  0.45333185     0.18510
F1090       F  0.60251889  0.28330968  0.43271911    -0.19250
C1091       C  0.70593881  0.53211757  0.30925103    -0.20680
C1092       C  0.74415884  0.04048538  0.34156825    -0.08720
C1093       C  0.78554493  0.05761286  0.31874568     0.30140
C1094       C  0.78826750  0.06300400  0.26841719    -0.20680
C1095       C  0.74995488  0.05301446  0.23653834    -0.08740
C1096       C  0.70850476  0.53903284  0.25955537     0.30140
F1097       F  0.66879953  0.53421373  0.23341857    -0.19260
H1098       H  0.67212515  0.52107631  0.32228220     0.18510
H1099       H  0.82133667  0.07529933  0.25459445     0.18510
F1100       F  0.82394659  0.06990736  0.34442548    -0.19250
C1101       C  0.72633088  0.07013819  0.06257288    -0.20680
C1102       C  0.74216910  0.53037486  0.09421858    -0.08720
C1103       C  0.75843091  0.49150122  0.07156928     0.30140
C1104       C  0.75978187  0.49335280  0.02196718    -0.20680
C1105       C  0.74724616  0.53464666  0.99020837    -0.08740
C1106       C  0.73027760  0.07288279  0.01298227     0.30140
F1107       F  0.71876128  0.11476417  0.98794580    -0.19260
H1108       H  0.71096354  0.10029094  0.07604973     0.18510
H1109       H  0.77358528  0.46237647  0.00834559     0.18510
F1110       F  0.77579065  0.45152610  0.09738292    -0.19250
C1111       C  0.55820130  0.35508379  0.31336399    -0.20680
C1112       C  0.52619439  0.32589368  0.28981297    -0.08720
C1113       C  0.99839966  0.35209129  0.25361618     0.30140
C1114       C  0.99325585  0.40311305  0.24953029    -0.20680
C1115       C  0.52157739  0.43192897  0.27672165    -0.08740
C1116       C  0.55819745  0.40643003  0.30430358     0.30140
F1117       F  0.59669516  0.43056757  0.31882326    -0.19260
H1118       H  0.58568883  0.33794683  0.33669006     0.18510
H1119       H  0.96882735  0.42039485  0.22291911     0.18510
F1120       F  0.98124397  0.32911185  0.21837560    -0.19250
C1121       C  0.53794124  0.10117649  0.28419757    -0.20680
C1122       C  0.00266252  0.07083150  0.30409864    -0.08720
C1123       C  0.96358370  0.09506950  0.31854253     0.30140
C1124       C  0.96234144  0.14643021  0.31669914    -0.20680
C1125       C  0.99891815  0.17729408  0.29859519    -0.08740
C1126       C  0.53420588  0.15218033  0.27799197     0.30140
F1127       F  0.56211305  0.17513168  0.24653419    -0.19260
H1128       H  0.56833718  0.08546596  0.27128059     0.18510
H1129       H  0.93199462  0.16198345  0.33008084     0.18510
F1130       F  0.92684314  0.06907239  0.33617559    -0.19250
C1131       C  0.93110099  0.29705843  0.60408004    -0.20680
C1132       C  0.47256461  0.29149846  0.13289691    -0.08720
C1133       C  0.49460326  0.24679645  0.13780013     0.30140
C1134       C  0.48751437  0.21780213  0.10239641    -0.20680
C1135       C  0.45964330  0.23452787  0.06221573    -0.08740
C1136       C  0.92888880  0.27334987  0.56450565     0.30140
F1137       F  0.90359339  0.29390638  0.52669510    -0.19260
H1138       H  0.91041869  0.32955904  0.60280419     0.18510
H1139       H  0.50781250  0.18543781  0.10478189     0.18510
F1140       F  0.53041885  0.23659759  0.16987640    -0.19250
C1141       C  0.48268721  0.10475844  0.42724979    -0.20680
C1142       C  0.97757585  0.06336175  0.45849208    -0.08720
C1143       C  0.95979521  0.06681482  0.50138566     0.30140
C1144       C  0.94343042  0.10948726  0.51210630    -0.20680
C1145       C  0.94097201  0.14942152  0.47879404    -0.08740
C1146       C  0.46238971  0.14788767  0.43647919     0.30140
F1147       F  0.46737710  0.18856909  0.40694243    -0.19260
H1148       H  0.50363104  0.10383068  0.39758889     0.18510
H1149       H  0.93639638  0.11171959  0.04780445     0.18510
F1150       F  0.96098707  0.02882593  0.53440217    -0.19250
C1151       C  0.84065638  0.05508799  0.97469657    -0.20680
C1152       C  0.81618479  0.03434499  0.93860256    -0.08720
C1153       C  0.83167538  0.48934251  0.42886754     0.30140
C1154       C  0.85903660  0.46057874  0.46248172    -0.20680
C1155       C  0.87168155  0.97659277  0.00563262    -0.08740
C1156       C  0.86252830  0.02470451  0.01119911     0.30140
F1157       F  0.87127638  0.04131431  0.05288073    -0.19260
H1158       H  0.83092357  0.09070103  0.98154494     0.18510
H1159       H  0.86802028  0.42468060  0.45564998     0.18510
F1160       F  0.81418913  0.46956391  0.39103424    -0.19250
C1161       C  0.64063128  0.00668429  0.46979177    -0.20680
C1162       C  0.65432883  0.46053163  0.49062089    -0.08720
C1163       C  0.68407375  0.43295878  0.96706606     0.30140
C1164       C  0.70385640  0.45412000  0.92648428    -0.20680
C1165       C  0.69484444  0.50289153  0.41033884    -0.08520
C1166       C  0.65828998  0.02633285  0.42809580     0.30140
F1167       F  0.64688416  0.07206576  0.41075946    -0.19260
H1168       H  0.61879576  0.02933423  0.48734457     0.18510
H1169       H  0.73157083  0.43516026  0.91221115     0.18510
F1170       F  0.69720542  0.38787051  0.98528426    -0.19250
C1171       C  0.54775454  0.97622260  0.37677186    -0.20680
C1172       C  0.00418628  0.98594042  0.35307927    -0.08720
C1173       C  0.96633990  0.45406365  0.36150429     0.30140
C1174       C  0.97257322  0.41280856  0.39322262    -0.20680
C1175       C  0.01684965  0.90231213  0.41605394    -0.08740
C1176       C  0.55461568  0.93340922  0.40597724     0.30140
F1177       F  0.59861451  0.92106031  0.42210630    -0.19260
H1178       H  0.57790805  0.99889662  0.36824027     0.18510
H1179       H  0.94255127  0.38984712  0.40105419     0.18510
F1180       F  0.92440087  0.46167388  0.33723128    -0.19250
C1181       C  0.99307096  0.57412583  0.16390526    -0.20680
C1182       C  0.53539927  0.56734325  0.14315178    -0.08720
C1183       C  0.57461904  0.55358826  0.17249080     0.30140
C1184       C  0.56672391  0.52181648  0.21217331    -0.20680
C1185       C  0.52104970  0.51578681  0.22733042    -0.08740
C1186       C  0.98432329  0.54470406  0.20482354     0.30140
F1187       F  0.94045897  0.54282206  0.22119838    -0.19260
H1188       H  0.96367361  0.59150666  0.14343461     0.18510
H1189       H  0.59512954  0.50175236  0.23124906     0.18510
F1190       F  0.61808192  0.55700729  0.15534944    -0.19250
Zn1191     Zn  0.97042617  0.91910377  0.99833916     1.49720
Zn1192     Zn  0.55381085  0.99076753  0.53182044     1.49360
Zn1193     Zn  0.98531046  0.43836630  0.59638744     1.49110
Zn1194     Zn  0.56312831  0.37754824  0.04513654     1.49480
O1195       O  0.51978312  0.93213500  0.54350847    -1.83500
O1196       O  0.96588920  0.98224852  0.95555249    -0.74130
O1197       O  0.54059513  0.04208773  0.56930530    -0.73950
O1198       O  0.91849739  0.46148826  0.57663447    -0.73470
O1199       O  0.53901825  0.00935305  0.46449557    -0.74150
O1200       O  0.91339789  0.90548981  0.03127103    -0.73740
O1201       O  0.01397616  0.49076562  0.62682890    -0.74330
O1202       O  0.53485469  0.33041366  0.09432243    -0.73720
O1203       O  0.61680448  0.97219214  0.55781899    -0.74480
O1204       O  0.98541876  0.37379691  0.63168180    -0.73870
O1205       O  0.63157769  0.39828446  0.04855926    -0.74330
O1206       O  0.55951018  0.35755035  0.97945078    -0.74240
O1207       O  0.98377497  0.85690451  0.97806034    -0.74030
C1208       C  0.99597858  0.01660598  0.95294806     0.77760
C1209       C  0.52900764  0.53226241  0.61074206     0.78250
C1210       C  0.89915406  0.94493490  0.04149597     0.77210
C1211       C  0.50208176  0.33392071  0.62279740     0.77580
C1212       C  0.63706967  0.44284663  0.53629420     0.78720
C1213       C  0.02051438  0.86574381  0.95684034     0.77770
C1214       C  0.51532089  0.48801975  0.77218153     0.01190
C1215       C  0.50585845  0.01466227  0.80795751     0.01190
C1216       C  0.73618625  0.03222468  0.89659632     0.01190
C1217       C  0.76424982  0.04081583  0.43726932     0.01190
C1218       C  0.92860526  0.19394204  0.99587383     0.01190
C1219       C  0.46713880  0.21441248  0.01830101     0.01190
C1220       C  0.99578490  0.23395739  0.79932163     0.01190
C1221       C  0.53155246  0.26937830  0.79534858     0.01190
Zn1222     Zn  0.80520186  0.33937518  0.69963892     1.49720
Zn1223     Zn  0.79585253  0.35742588  0.81205739     1.49360
Zn1224     Zn  0.71552579  0.31150210  0.73784573     1.49110
Zn1225     Zn  0.79915262  0.24597656  0.77904879     1.49480
O1226       O  0.78060380  0.31693066  0.75957616    -1.83500
O1227       O  0.85568673  0.38821392  0.71409633    -0.74130
O1228       O  0.72904738  0.38314982  0.82516946    -0.73950
O1229       O  0.69083395  0.34032617  0.67754368    -0.73470
O1230       O  0.84835724  0.40217194  0.78586830    -0.74150
O1231       O  0.75689848  0.37525389  0.65729837    -0.73740
O1232       O  0.68143272  0.33733173  0.78805882    -0.74330
O1233       O  0.74236465  0.20108560  0.78889697    -0.73720
O1234       O  0.82604574  0.31424982  0.86545804    -0.74480
O1235       O  0.72669930  0.24517392  0.72498408    -0.73870
O1236       O  0.83454892  0.24524471  0.83959780    -0.74330
O1237       O  0.83283063  0.22154468  0.72849363    -0.74240
O1238       O  0.81439593  0.27790615  0.66912774    -0.74030
C1239       C  0.86784039  0.37917775  0.75695843     0.77760
C1240       C  0.70003014  0.37859439  0.79110504     0.78250
C1241       C  0.71761779  0.35669422  0.64640629     0.77210
C1242       C  0.71244339  0.21637805  0.75728091     0.77580
C1243       C  0.81164997  0.27185944  0.86282233     0.78720
C1244       C  0.82466616  0.23460932  0.68527185     0.77770
C1245       C  0.67791155  0.21753042  0.98165497     0.01190
C1246       C  0.71750106  0.22378600  0.51300808     0.01190
C1247       C  0.73847960  0.52641446  0.64919630     0.01190
C1248       C  0.75199315  0.06021290  0.68040953     0.01190
C1249       C  0.76657481  0.19095572  0.64448723    -0.20680
C1250       C  0.81461847  0.19605869  0.65668825    -0.08720
C1251       C  0.84360545  0.15528073  0.66257613     0.30140
C1252       C  0.82316395  0.10963002  0.66379746    -0.20680
C1253       C  0.77396593  0.10503758  0.66095012    -0.08740
C1254       C  0.74589062  0.14566406  0.64866615     0.30140
F1255       F  0.69820933  0.14193555  0.64664171    -0.19260
H1256       H  0.74346940  0.22178461  0.64100638     0.18510
H1257       H  0.84511520  0.07813548  0.67276281     0.18510
F1258       F  0.89015822  0.15934043  0.67454194    -0.19250
C1259       C  0.75201891  0.43151260  0.74414761    -0.20680
C1260       C  0.70732605  0.41157884  0.74864180    -0.08720
C1261       C  0.67196054  0.42552258  0.71392966     0.30140
C1262       C  0.68255421  0.45999442  0.67638147    -0.20680
C1263       C  0.72870891  0.47847519  0.67319428    -0.08740
C1264       C  0.76434598  0.45931606  0.70459013     0.30140
F1265       F  0.80914269  0.47647633  0.70217216    -0.19260
H1266       H  0.77631468  0.42967127  0.77352722     0.18510
H1267       H  0.65462740  0.47434058  0.65200124     0.18510
F1268       F  0.62745957  0.40817013  0.71764589    -0.19250
C1269       C  0.75250164  0.32722640  0.58184346    -0.20680
C1270       C  0.71118382  0.33741741  0.60192171    -0.08720
C1271       C  0.67035359  0.31093440  0.59215817     0.30140
C1272       C  0.67196634  0.27360126  0.56454392    -0.20680
C1273       C  0.71485520  0.25976789  0.54795822    -0.08740
C1274       C  0.75580461  0.28549189  0.56163046     0.30140
F1275       F  0.80009384  0.26798466  0.56276608    -0.19260
H1276       H  0.78519184  0.34519147  0.59047198     0.18510
H1277       H  0.63992895  0.25394341  0.56020976     0.18510
F1278       F  0.62959881  0.31890296  0.61215545    -0.19250
C1279       C  0.74982133  0.21061440  0.88283893    -0.20680
C1280       C  0.76356653  0.25905471  0.87645852    -0.08720
C1281       C  0.73505238  0.29360202  0.89292019     0.30140
C1282       C  0.69776199  0.27909014  0.91986760    -0.20680
C1283       C  0.68938415  0.23020901  0.93267786    -0.08740
C1284       C  0.71130875  0.19669312  0.90900042     0.30140
F1285       F  0.69676743  0.15052986  0.91236469    -0.19260
H1286       H  0.77097399  0.18300479  0.87102933     0.18510
H1287       H  0.68332375  0.30560028  0.93944223     0.18510
F1288       F  0.75140218  0.33852580  0.89712939    -0.19250
C1289       C  0.59448504  0.26683759  0.74390473    -0.20680
C1290       C  0.57857617  0.25429325  0.78826179    -0.08720
C1291       C  0.60404765  0.22238402  0.82112091     0.30140
C1292       C  0.64605138  0.20344490  0.80891679    -0.20680
C1293       C  0.66249034  0.21709622  0.76474184    -0.08740
C1294       C  0.63407256  0.24525335  0.73108221     0.30140
F1295       F  0.64549578  0.25300191  0.68605470    -0.19260
H1296       H  0.57432442  0.29066633  0.71817477     0.18510
H1297       H  0.66609327  0.17899140  0.83359195     0.18510
F1298       F  0.58769372  0.20895214  0.86381621    -0.19250
C1299       C  0.92353001  0.25805343  0.75666145    -0.20680
C1300       C  0.94841995  0.25384060  0.79951266    -0.08720
C1301       C  0.93824218  0.28465346  0.83250574     0.30140
C1302       C  0.90924841  0.32421285  0.81917571    -0.20680
C1303       C  0.88975498  0.33266375  0.77356535    -0.08740
C1304       C  0.89724484  0.29913510  0.74248348     0.30140
F1305       F  0.88999432  0.31141525  0.69617568    -0.19260
H1306       H  0.93286005  0.23577882  0.73044419     0.18510
H1307       H  0.90545583  0.35046995  0.84312565     0.18510
F1308       F  0.96299919  0.28183290  0.87401811    -0.19250
C1309       C  0.84954498  0.23882707  0.47433384    -0.20680
C1310       C  0.87431630  0.20134586  0.50178095    -0.08720
C1311       C  0.84535472  0.16969108  0.03034952     0.30140
C1312       C  0.79521418  0.17443740  0.02913587    -0.20680
C1313       C  0.77010056  0.21241135  0.50204789    -0.08740
C1314       C  0.80055786  0.24688294  0.47828329     0.30140
F1315       F  0.78662106  0.29310096  0.46949783    -0.19260
H1316       H  0.86938090  0.26546463  0.45316953     0.18510
H1317       H  0.77624992  0.15067695  0.05351445     0.18510
F1318       F  0.86458099  0.13572234  0.06248516    -0.19250
C1319       C  0.60289548  0.17911960  0.52130089    -0.20680
C1320       C  0.62331815  0.21600356  0.99064280    -0.08720
C1321       C  0.58930863  0.24798938  0.96534215     0.30140
C1322       C  0.54006272  0.24514986  0.97312806    -0.20680
C1323       C  0.52030044  0.21014698  0.00542529    -0.08740
C1324       C  0.55311811  0.17575039  0.52789760     0.30140
F1325       F  0.53734734  0.13739957  0.55548466    -0.19260
H1326       H  0.62577975  0.15180800  0.53985899     0.18510
H1327       H  0.51673985  0.27103487  0.95331733     0.18510
F1328       F  0.60269549  0.28322821  0.93267540    -0.19250
C1329       C  0.70595776  0.53222903  0.80926528    -0.20680
C1330       C  0.74422514  0.04046483  0.84157303    -0.08720
C1331       C  0.78563810  0.05748130  0.81873411     0.30140
C1332       C  0.78833035  0.06288645  0.76840176    -0.20680
C1333       C  0.74996162  0.05302577  0.73653524    -0.08740
C1334       C  0.70849914  0.53916336  0.75956516     0.30140
F1335       F  0.66875622  0.53449266  0.73343651    -0.19260
H1336       H  0.67212623  0.52128097  0.82231106     0.18510
H1337       H  0.82142062  0.07508916  0.75456453     0.18510
F1338       F  0.82410018  0.06964552  0.84440063    -0.19250
C1339       C  0.72626282  0.07020891  0.56256488    -0.20680
C1340       C  0.74209443  0.53043318  0.59420856    -0.08720
C1341       C  0.75831736  0.49154881  0.57154864     0.30140
C1342       C  0.75964904  0.49340049  0.52194473    -0.20680
C1343       C  0.74713492  0.53470516  0.49019330    -0.08740
C1344       C  0.73020853  0.07295667  0.51297309     0.30140
F1345       F  0.71875994  0.11486006  0.48794274    -0.19260
H1346       H  0.71091790  0.10036951  0.57604890     0.18510
H1347       H  0.77343141  0.46241810  0.50831639     0.18510
F1348       F  0.77566409  0.45156292  0.59735181    -0.19250
C1349       C  0.55834918  0.35508793  0.81333254    -0.20680
C1350       C  0.52632577  0.32590018  0.78979737    -0.08720
C1351       C  0.99851411  0.35210104  0.75361814     0.30140
C1352       C  0.99337482  0.40312300  0.74953431    -0.20680
C1353       C  0.52171501  0.43193696  0.77671042    -0.08740
C1354       C  0.55834565  0.40643496  0.80427403     0.30140
F1355       F  0.59685249  0.43057072  0.81877506    -0.19260
H1356       H  0.58584669  0.33794897  0.83664444     0.18510
H1357       H  0.96893177  0.42040590  0.72293763     0.18510
F1358       F  0.98133161  0.32912106  0.71839136    -0.19250
C1359       C  0.53807257  0.10118502  0.78418622    -0.20680
C1360       C  0.00281570  0.07083398  0.80412139    -0.08720
C1361       C  0.96374248  0.09506688  0.81858464     0.30140
C1362       C  0.96248878  0.14642877  0.81672916    -0.20680
C1363       C  0.99904589  0.17729876  0.79859345    -0.08740
C1364       C  0.53432294  0.15218847  0.77797099     0.30140
F1365       F  0.56220112  0.17514175  0.74648625    -0.19260
H1366       H  0.56845717  0.08547725  0.77124438     0.18510
H1367       H  0.93214773  0.16197909  0.83012423     0.18510
F1368       F  0.92701807  0.06906428  0.83624541    -0.19250
C1369       C  0.93128003  0.29692794  0.10409613    -0.20680
C1370       C  0.47236969  0.29161779  0.63290248    -0.08720
C1371       C  0.49438774  0.24690518  0.63783632     0.30140
C1372       C  0.48729961  0.21789451  0.60244460    -0.20680
C1373       C  0.45945270  0.23461872  0.56224586    -0.08740
C1374       C  0.92906265  0.27323902  0.06450756     0.30140
F1375       F  0.90374190  0.29379837  0.02671477    -0.19260
H1376       H  0.91058432  0.32941734  0.10284180     0.18510
H1377       H  0.50757572  0.18551391  0.60485586     0.18510
F1378       F  0.53017005  0.23669591  0.66995038    -0.19250
C1379       C  0.48291466  0.10468897  0.92724832    -0.20680
C1380       C  0.97776353  0.06328941  0.95847935    -0.08720
C1381       C  0.95994398  0.06674213  0.00135509     0.30140
C1382       C  0.94357254  0.10941397  0.01206292    -0.20680
C1383       C  0.94114456  0.14935086  0.97875442    -0.08740
C1384       C  0.46261038  0.14782113  0.93646315     0.30140
F1385       F  0.46764683  0.18851098  0.90694748    -0.19260
H1386       H  0.50389028  0.10376144  0.89760815     0.18510
H1387       H  0.93626385  0.11179335  0.54785161     0.18510
F1388       F  0.96112290  0.02875830  0.03437736    -0.19250
C1389       C  0.84053822  0.05517661  0.47468754    -0.20680
C1390       C  0.81608037  0.03442874  0.43858922    -0.08720
C1391       C  0.83176941  0.48925443  0.92887357     0.30140
C1392       C  0.85915726  0.46049169  0.96246735    -0.20680
C1393       C  0.87154087  0.97668009  0.50564598    -0.08740
C1394       C  0.86238782  0.02479360  0.51120352     0.30140
F1395       F  0.87111630  0.04140537  0.55288670    -0.19260
H1396       H  0.83080293  0.09079221  0.48152687     0.18510
H1397       H  0.86813855  0.42459645  0.95562504     0.18510
F1398       F  0.81425847  0.46947714  0.89104883    -0.19250
C1399       C  0.64076792  0.00662479  0.96984692    -0.20680
C1400       C  0.65447299  0.46047352  0.99065891    -0.08720
C1401       C  0.68393992  0.43300960  0.46704640     0.30140
C1402       C  0.70374957  0.45416561  0.42647788    -0.20680
C1403       C  0.69494419  0.50284749  0.91035411    -0.08520
C1404       C  0.65840204  0.02628442  0.92814271     0.30140
F1405       F  0.64700451  0.07202874  0.91083640    -0.19260
H1406       H  0.61895562  0.02927475  0.98742413     0.18510
H1407       H  0.73147577  0.43520385  0.41222433     0.18510
F1408       F  0.69706204  0.38792251  0.48527707    -0.19250
C1409       C  0.54793681  0.97619994  0.87676793    -0.20680
C1410       C  0.00436188  0.98593027  0.85309276    -0.08720
C1411       C  0.96653020  0.45404880  0.86151832     0.30140
C1412       C  0.97277637  0.41278199  0.89321995    -0.20680
C1413       C  0.01703791  0.90227812  0.91603715    -0.08740
C1414       C  0.55480278  0.93337553  0.90595693     0.30140
F1415       F  0.59880501  0.92101329  0.92206072    -0.19260
H1416       H  0.57808959  0.99887321  0.86823208     0.18510
H1417       H  0.94275772  0.38981755  0.90105622     0.18510
F1418       F  0.92458151  0.46166639  0.83726473    -0.19250
C1419       C  0.99307236  0.57419702  0.66397220    -0.20680
C1420       C  0.53535841  0.56741823  0.64314451    -0.08720
C1421       C  0.57461583  0.55363119  0.67241934     0.30140
C1422       C  0.56677114  0.52182850  0.71209371    -0.20680
C1423       C  0.52112307  0.51580202  0.72732127    -0.08740
C1424       C  0.98437534  0.54474084  0.70488341     0.30140
F1425       F  0.94053807  0.54285437  0.72132158    -0.19260
H1426       H  0.96365375  0.59160238  0.64355652     0.18510
H1427       H  0.59519822  0.50173996  0.73110694     0.18510
F1428       F  0.61805199  0.55706178  0.65521828    -0.19250
Zn1429     Zn  0.97020237  0.41917009  0.49835397     1.49720
Zn1430     Zn  0.55394341  0.49065910  0.03187346     1.49360
Zn1431     Zn  0.98551369  0.93827259  0.09636710     1.49110
Zn1432     Zn  0.56298234  0.87764929  0.54511335     1.49480
O1433       O  0.51992052  0.43202670  0.04353567    -1.83500
O1434       O  0.96568413  0.48229347  0.45553286    -0.74130
O1435       O  0.54065844  0.54198524  0.06932400    -0.73950
O1436       O  0.91870494  0.96140630  0.07658623    -0.73470
O1437       O  0.53920824  0.50921824  0.96453328    -0.74150
O1438       O  0.91318369  0.40558033  0.53130821    -0.73740
O1439       O  0.01416879  0.99065644  0.12684394    -0.74330
O1440       O  0.53475662  0.83052754  0.59433261    -0.73720
O1441       O  0.61690969  0.47207440  0.05795077    -0.74480
O1442       O  0.98561188  0.87368624  0.13163704    -0.73870
O1443       O  0.63143019  0.89837723  0.54846761    -0.74330
O1444       O  0.55931982  0.85759223  0.47945251    -0.74240
O1445       O  0.98353794  0.35696378  0.47808818    -0.74030
C1446       C  0.99578979  0.51663609  0.45293166     0.77760
C1447       C  0.52918037  0.03216334  0.11076282     0.78250
C1448       C  0.89894631  0.44502516  0.54154038     0.77210
C1449       C  0.50230107  0.83382101  0.12275314     0.77580
C1450       C  0.63728287  0.94279548  0.03627729     0.78720
C1451       C  0.02028749  0.36578026  0.45687825     0.77770
C1452       C  0.51519483  0.98801118  0.27218066     0.01190
C1453       C  0.50571264  0.51466003  0.30794884     0.01190
C1454       C  0.73601928  0.53233101  0.39665699     0.01190
C1455       C  0.76429024  0.54081152  0.93735460     0.01190
C1456       C  0.92852830  0.69400438  0.49589056     0.01190
C1457       C  0.46706265  0.71447653  0.51831492     0.01190
C1458       C  0.99571475  0.73395356  0.29934074     0.01190
C1459       C  0.53148369  0.76937380  0.29537943     0.01190
Zn1460     Zn  0.80518188  0.83931465  0.19956962     1.49720
Zn1461     Zn  0.79573550  0.85736886  0.31196473     1.49360
Zn1462     Zn  0.71547046  0.81140689  0.23771108     1.49110
Zn1463     Zn  0.79908326  0.74591901  0.27900882     1.49480
O1464       O  0.78053774  0.81686224  0.25949257    -1.83500
O1465       O  0.85564022  0.88817864  0.21401212    -0.74130
O1466       O  0.72888282  0.88300228  0.32505955    -0.73950
O1467       O  0.69084920  0.84020214  0.17737450    -0.73470
O1468       O  0.84822640  0.90213445  0.28576888    -0.74150
O1469       O  0.75690837  0.87517628  0.15719057    -0.73740
O1470       O  0.68128765  0.83724672  0.28786387    -0.74330
O1471       O  0.74228994  0.70103796  0.28887374    -0.73720
O1472       O  0.82595237  0.81423050  0.36537384    -0.74480
O1473       O  0.72662206  0.74504960  0.22491575    -0.73870
O1474       O  0.83444604  0.74519513  0.33957629    -0.74330
O1475       O  0.83279488  0.72148401  0.22847582    -0.74240
O1476       O  0.81442389  0.77784684  0.16908822    -0.74030
C1477       C  0.86775781  0.87915445  0.25688136     0.77760
C1478       C  0.69991311  0.87848937  0.29095273     0.78250
C1479       C  0.71766021  0.85657560  0.14626363     0.77210
C1480       C  0.71236289  0.71630873  0.25725454     0.77580
C1481       C  0.81155220  0.77183613  0.36277883     0.78720
C1482       C  0.82467978  0.73455112  0.18524662     0.77770
C1483       C  0.67783435  0.71761942  0.48167427     0.01190
C1484       C  0.71774825  0.72363480  0.01289600     0.01190
C1485       C  0.73861318  0.02631074  0.14912768     0.01190
C1486       C  0.75195173  0.56020801  0.18048663     0.01190
C1487       C  0.76661104  0.69091840  0.14443702    -0.20680
C1488       C  0.81465202  0.69600461  0.15665737    -0.08720
C1489       C  0.84361900  0.65521164  0.16259065     0.30140
C1490       C  0.82315293  0.60956989  0.16385824    -0.20680
C1491       C  0.77395242  0.60500831  0.16101179    -0.08740
C1492       C  0.74590040  0.64564141  0.14867323     0.30140
F1493       F  0.69821681  0.64194277  0.14665309    -0.19260
H1494       H  0.74352124  0.72176097  0.14092070     0.18510
H1495       H  0.84508496  0.57806703  0.17286297     0.18510
F1496       F  0.89017015  0.65925689  0.17457040    -0.19250
C1497       C  0.75199906  0.93145483  0.24415969    -0.20680
C1498       C  0.70728936  0.91148157  0.24851226    -0.08720
C1499       C  0.67200133  0.92540161  0.21372071     0.30140
C1500       C  0.68266547  0.95986894  0.17618979    -0.20680
C1501       C  0.72882531  0.97836935  0.17311564    -0.08740
C1502       C  0.76439652  0.95923449  0.20459543     0.30140
F1503       F  0.80919219  0.97642464  0.20229044    -0.19260
H1504       H  0.77606638  0.92971577  0.27348636     0.18510
H1505       H  0.65479545  0.97420790  0.15176467     0.18510
F1506       F  0.62749023  0.90804782  0.21734354    -0.19250
C1507       C  0.75264834  0.82709704  0.08175344    -0.20680
C1508       C  0.71130042  0.83726501  0.10179187    -0.08720
C1509       C  0.67049894  0.81075111  0.09200647     0.30140
C1510       C  0.67216495  0.77340675  0.06441839    -0.20680
C1511       C  0.71507026  0.75961846  0.04783839    -0.08740
C1512       C  0.75599471  0.78537915  0.06151761     0.30140
F1513       F  0.80030104  0.76791795  0.06264596    -0.19260
H1514       H  0.78531847  0.84508314  0.09040996     0.18510
H1515       H  0.64015334  0.75370382  0.06010595     0.18510
F1516       F  0.62972062  0.81869060  0.11197196    -0.19250
C1517       C  0.74970440  0.71061993  0.38283642    -0.20680
C1518       C  0.76346890  0.75905369  0.37643358    -0.08720
C1519       C  0.73497449  0.79362331  0.39288808     0.30140
C1520       C  0.69768647  0.77913965  0.41984979    -0.20680
C1521       C  0.68929782  0.73026586  0.43268910    -0.08740
C1522       C  0.71119964  0.69672637  0.40902067     0.30140
F1523       F  0.69664176  0.65056768  0.41241111    -0.19260
H1524       H  0.77083876  0.68299433  0.37103014     0.18510
H1525       H  0.68326085  0.80566803  0.43941133     0.18510
F1526       F  0.75134367  0.83854705  0.39707308    -0.19250
C1527       C  0.59442233  0.76685433  0.24394296    -0.20680
C1528       C  0.57851301  0.75429547  0.28829667    -0.08720
C1529       C  0.60398718  0.72237787  0.32114654     0.30140
C1530       C  0.64598769  0.70343724  0.30893049    -0.20680
C1531       C  0.66241701  0.71708836  0.26475012    -0.08740
C1532       C  0.63400025  0.74526567  0.23110531     0.30140
F1533       F  0.64540058  0.75301206  0.18607110    -0.19260
H1534       H  0.57426321  0.79069463  0.21822203     0.18510
H1535       H  0.66602730  0.67896962  0.33359525     0.18510
F1536       F  0.58763644  0.70893485  0.36384122    -0.19250
C1537       C  0.92349044  0.75804601  0.25663021    -0.20680
C1538       C  0.94834898  0.75384048  0.29949774    -0.08720
C1539       C  0.93814599  0.78465955  0.33247722     0.30140
C1540       C  0.90915313  0.82421391  0.31912329    -0.20680
C1541       C  0.88968500  0.83265207  0.27350326    -0.08740
C1542       C  0.89721077  0.79912422  0.24242859     0.30140
F1543       F  0.89000348  0.81140139  0.19611424    -0.19260
H1544       H  0.93284508  0.73576956  0.23042321     0.18510
H1545       H  0.90534292  0.85047736  0.34306335     0.18510
F1546       F  0.96288033  0.78185168  0.37400131    -0.19250
C1547       C  0.84979743  0.73870230  0.97425765    -0.20680
C1548       C  0.87457742  0.70125050  0.00173716    -0.08720
C1549       C  0.84527745  0.66978511  0.53038231     0.30140
C1550       C  0.79513651  0.67453764  0.52916817    -0.20680
C1551       C  0.77035609  0.71227226  0.00196530    -0.08740
C1552       C  0.80080633  0.74674337  0.97819070     0.30140
F1553       F  0.78685355  0.79295412  0.96937514    -0.19260
H1554       H  0.86962953  0.76533541  0.95308381     0.18510
H1555       H  0.77617020  0.65078977  0.55355642     0.18510
F1556       F  0.86450489  0.63583048  0.56253156    -0.19250
C1557       C  0.60314194  0.67895182  0.02114165    -0.20680
C1558       C  0.62324423  0.71609666  0.49067327    -0.08720
C1559       C  0.58923061  0.74806796  0.46536025     0.30140
C1560       C  0.53998267  0.74521607  0.47313700    -0.20680
C1561       C  0.52022407  0.71021595  0.50544024    -0.08740
C1562       C  0.55336792  0.67561150  0.02776337     0.30140
F1563       F  0.53758510  0.63726097  0.05534315    -0.19260
H1564       H  0.62601614  0.65161446  0.03967191     0.18510
H1565       H  0.51665581  0.77109017  0.45331585     0.18510
F1566       F  0.60261720  0.78330578  0.43269204    -0.19250
C1567       C  0.70602082  0.03203027  0.30917965    -0.20680
C1568       C  0.74408633  0.54054444  0.34163977    -0.08720
C1569       C  0.78548357  0.55763740  0.31881579     0.30140
C1570       C  0.78820601  0.56302027  0.26848742    -0.20680
C1571       C  0.74988377  0.55305714  0.23660960    -0.08740
C1572       C  0.70858541  0.03895259  0.25948485     0.30140
F1573       F  0.66888788  0.03408982  0.23335047    -0.19260
H1574       H  0.67221473  0.02095769  0.32220942     0.18510
H1575       H  0.82128242  0.57528923  0.25466304     0.18510
F1576       F  0.82389819  0.56990395  0.34449312    -0.19250
C1577       C  0.72625690  0.57018589  0.06264886    -0.20680
C1578       C  0.74224524  0.03032948  0.09414362    -0.08720
C1579       C  0.75850121  0.99145224  0.07149520     0.30140
C1580       C  0.75983946  0.99329598  0.02189288    -0.20680
C1581       C  0.74730860  0.03459015  0.99013358    -0.08740
C1582       C  0.73019730  0.57293145  0.01305829     0.30140
F1583       F  0.71863603  0.61480164  0.98802464    -0.19260
H1584       H  0.71088808  0.60033829  0.07612404     0.18510
H1585       H  0.77363749  0.96231668  0.00827197     0.18510
F1586       F  0.77587175  0.95148284  0.09730958    -0.19250
C1587       C  0.55823837  0.85509171  0.31337300    -0.20680
C1588       C  0.52624521  0.82589482  0.28981411    -0.08720
C1589       C  0.99845794  0.85208658  0.25360729     0.30140
C1590       C  0.99329986  0.90310695  0.24952200    -0.20680
C1591       C  0.52160141  0.93192912  0.27672495    -0.08740
C1592       C  0.55822278  0.90643862  0.30431338     0.30140
F1593       F  0.59671180  0.93058530  0.31883924    -0.19260
H1594       H  0.58572384  0.83796038  0.33670551     0.18510
H1595       H  0.96887625  0.92038347  0.22290317     0.18510
F1596       F  0.98131956  0.82910304  0.21836186    -0.19250
C1597       C  0.53796959  0.60117092  0.28420363    -0.20680
C1598       C  0.00268968  0.57083170  0.30411216    -0.08720
C1599       C  0.96362064  0.59507697  0.31856670     0.30140
C1600       C  0.96238873  0.64643779  0.31672432    -0.20680
C1601       C  0.99896564  0.67729565  0.29861106    -0.08740
C1602       C  0.53424509  0.65217644  0.27800217     0.30140
F1603       F  0.56215506  0.67512612  0.24654541    -0.19260
H1604       H  0.56835852  0.58545443  0.27127963     0.18510
H1605       H  0.93204912  0.66199689  0.33011358     0.18510
F1606       F  0.92687861  0.56908710  0.33620680    -0.19250
C1607       C  0.93118048  0.79703112  0.60406074    -0.20680
C1608       C  0.47262911  0.79148932  0.13287425    -0.08720
C1609       C  0.49469220  0.74679960  0.13777210     0.30140
C1610       C  0.48762748  0.71781043  0.10236126    -0.20680
C1611       C  0.45974259  0.73452122  0.06218535    -0.08740
C1612       C  0.92897832  0.77332560  0.56448447     0.30140
F1613       F  0.90366513  0.79386854  0.52667917    -0.19260
H1614       H  0.91047995  0.82951910  0.60278963     0.18510
H1615       H  0.50794979  0.68546198  0.10473986     0.18510
F1616       F  0.53050971  0.73661526  0.16984919    -0.19250
C1617       C  0.48277548  0.60472633  0.42724803    -0.20680
C1618       C  0.97759921  0.56332608  0.45847198    -0.08720
C1619       C  0.95978965  0.56678299  0.50135133     0.30140
C1620       C  0.94346294  0.60946740  0.51207431    -0.20680
C1621       C  0.94105807  0.64941052  0.47877232    -0.08740
C1622       C  0.46250709  0.64787103  0.43647424     0.30140
F1623       F  0.46755453  0.68855737  0.40695682    -0.19260
H1624       H  0.50374208  0.60378777  0.39760341     0.18510
H1625       H  0.93641822  0.61169226  0.04776926     0.18510
F1626       F  0.96094323  0.52878968  0.53436356    -0.19250
C1627       C  0.84060376  0.55510557  0.97476496    -0.20680
C1628       C  0.81611648  0.53437845  0.93867083    -0.08720
C1629       C  0.83175907  0.98930627  0.42881675     0.30140
C1630       C  0.85911106  0.96055192  0.46244788    -0.20680
C1631       C  0.87163262  0.47660096  0.00566335    -0.08740
C1632       C  0.86249212  0.52471163  0.01124855     0.30140
F1633       F  0.87127517  0.54131373  0.05292921    -0.19260
H1634       H  0.83087976  0.59071553  0.98162794     0.18510
H1635       H  0.86810406  0.92465212  0.45562884     0.18510
F1636       F  0.81428742  0.96951654  0.39098420    -0.19250
C1637       C  0.64058146  0.50670242  0.46989013    -0.20680
C1638       C  0.65437709  0.96052322  0.49055101    -0.08720
C1639       C  0.68411359  0.93292280  0.96700960     0.30140
C1640       C  0.70391149  0.95406564  0.92642911    -0.20680
C1641       C  0.69491231  0.00283520  0.41026388    -0.08520
C1642       C  0.65822901  0.52637625  0.42819712     0.30140
F1643       F  0.64682337  0.57211898  0.41089348    -0.19260
H1644       H  0.61875004  0.52933933  0.48746219     0.18510
H1645       H  0.73163059  0.93509654  0.91217296     0.18510
F1646       F  0.69723321  0.88783657  0.98524557    -0.19250
C1647       C  0.54776626  0.47619651  0.37677648    -0.20680
C1648       C  0.00419962  0.48593094  0.35308484    -0.08720
C1649       C  0.96633462  0.95406458  0.36150335     0.30140
C1650       C  0.97257989  0.91281350  0.39322454    -0.20680
C1651       C  0.01683734  0.40229594  0.41605934    -0.08740
C1652       C  0.55461405  0.43338073  0.40598335     0.30140
F1653       F  0.59860742  0.42102580  0.42212744    -0.19260
H1654       H  0.57792594  0.49886320  0.36824929     0.18510
H1655       H  0.94256539  0.88984141  0.40105756     0.18510
F1656       F  0.92439414  0.96166044  0.33722989    -0.19250
C1657       C  0.99312446  0.07412378  0.16389750    -0.20680
C1658       C  0.53545855  0.06733309  0.14315775    -0.08720
C1659       C  0.57466941  0.05357060  0.17250590     0.30140
C1660       C  0.56675981  0.02181020  0.21219233    -0.20680
C1661       C  0.52107844  0.01578438  0.22733219    -0.08740
C1662       C  0.98435993  0.04470186  0.20481037     0.30140
F1663       F  0.94048758  0.04282103  0.22116665    -0.19260
H1664       H  0.96373429  0.09150708  0.14341716     0.18510
H1665       H  0.59515943  0.00175053  0.23128380     0.18510
F1666       F  0.61813528  0.05696993  0.15537056    -0.19250
Zn1667     Zn  0.97040288  0.41908964  0.99834638     1.49720
Zn1668     Zn  0.55376762  0.49073673  0.53184487     1.49360
Zn1669     Zn  0.98535315  0.93837806  0.59636860     1.49110
Zn1670     Zn  0.56315803  0.87756346  0.04510587     1.49480
O1671       O  0.51973347  0.43211230  0.54352809    -1.83500
O1672       O  0.96588451  0.48221933  0.95554581    -0.74130
O1673       O  0.54053383  0.54207702  0.56929930    -0.73950
O1674       O  0.91853621  0.96150074  0.57661422    -0.73470
O1675       O  0.53901233  0.50928553  0.46450841    -0.74150
O1676       O  0.91335768  0.40549173  0.03125701    -0.73740
O1677       O  0.01402354  0.99076719  0.62682209    -0.74330
O1678       O  0.53490615  0.83043023  0.09430273    -0.73720
O1679       O  0.61673785  0.47214171  0.55789453    -0.74480
O1680       O  0.98545887  0.87379982  0.63164892    -0.73870
O1681       O  0.63160499  0.89829884  0.04851041    -0.74330
O1682       O  0.55951864  0.85754874  0.97942566    -0.74240
O1683       O  0.98376480  0.35689864  0.97806150    -0.74030
C1684       C  0.99598858  0.51656272  0.95294157     0.77760
C1685       C  0.52906371  0.03226394  0.61074565     0.78250
C1686       C  0.89911743  0.44492998  0.04150488     0.77210
C1687       C  0.50214287  0.83393023  0.62277097     0.77580
C1688       C  0.63711863  0.94287183  0.53623239     0.78720
C1689       C  0.02051190  0.36573999  0.95685283     0.77770
C1690       C  0.51532570  0.98801865  0.77218456     0.01190
C1691       C  0.50588040  0.51466176  0.80796230     0.01190
C1692       C  0.73611649  0.53228988  0.89666852     0.01190
C1693       C  0.76418196  0.54087057  0.43734207     0.01190
C1694       C  0.92869276  0.69392646  0.99585455     0.01190
C1695       C  0.46723088  0.71439858  0.01827302     0.01190
C1696       C  0.99584735  0.73395869  0.79932979     0.01190
C1697       C  0.53161607  0.76937895  0.79535757     0.01190
Zn1698     Zn  0.80528221  0.83936049  0.69958011     1.49720
Zn1699     Zn  0.79591041  0.85742125  0.81198996     1.49360
Zn1700     Zn  0.71560153  0.81147125  0.73777814     1.49110
Zn1701     Zn  0.79922515  0.74596871  0.77899628     1.49480
O1702       O  0.78067478  0.81691578  0.75951314    -1.83500
O1703       O  0.85576399  0.88820266  0.71403681    -0.74130
O1704       O  0.72909321  0.88312928  0.82509004    -0.73950
O1705       O  0.69093089  0.84027458  0.67746526    -0.73470
O1706       O  0.84841554  0.90217296  0.78580223    -0.74150
O1707       O  0.75698837  0.87522106  0.65721570    -0.73740
O1708       O  0.68148760  0.83730299  0.78797836    -0.74330
O1709       O  0.74243298  0.70107869  0.78886564    -0.73720
O1710       O  0.82610373  0.81426282  0.86540272    -0.74480
O1711       O  0.72675699  0.74513419  0.72493720    -0.73870
O1712       O  0.83463671  0.74526638  0.83953259    -0.74330
O1713       O  0.83290855  0.72153843  0.72844445    -0.74240
O1714       O  0.81448419  0.77789566  0.66907167    -0.74030
C1715       C  0.86790889  0.87917644  0.75690200     0.77760
C1716       C  0.70008297  0.87856711  0.79102233     0.78250
C1717       C  0.71770205  0.85667024  0.64632665     0.77210
C1718       C  0.71250419  0.71636042  0.75725241     0.77580
C1719       C  0.81172733  0.77186698  0.86276214     0.78720
C1720       C  0.82474645  0.73459874  0.68522153     0.77770
C1721       C  0.67799933  0.71748964  0.98159993     0.01190
C1722       C  0.71759297  0.72376777  0.51295662     0.01190
C1723       C  0.73854722  0.02637111  0.64911747     0.01190
C1724       C  0.75193354  0.56025728  0.68048315     0.01190
C1725       C  0.76662994  0.69097529  0.64444697    -0.20680
C1726       C  0.81467805  0.69604513  0.65664727    -0.08720
C1727       C  0.84362827  0.65523934  0.66257497     0.30140
C1728       C  0.82314493  0.60960455  0.66385002    -0.20680
C1729       C  0.77394284  0.60505831  0.66101514    -0.08740
C1730       C  0.74590299  0.64570380  0.64869051     0.30140
F1731       F  0.69821840  0.64202167  0.64667985    -0.19260
H1732       H  0.74355323  0.72182827  0.64092938     0.18510
H1733       H  0.84506915  0.57809398  0.67284094     0.18510
F1734       F  0.89018608  0.65926741  0.67453344    -0.19250
C1735       C  0.75208670  0.93147172  0.74407337    -0.20680
C1736       C  0.70738403  0.91154103  0.74855391    -0.08720
C1737       C  0.67202417  0.92547947  0.71383769     0.30140
C1738       C  0.68262108  0.95994913  0.67628757    -0.20680
C1739       C  0.72877789  0.97843004  0.67310909    -0.08740
C1740       C  0.76441046  0.95927249  0.70450620     0.30140
F1741       F  0.80920724  0.97643683  0.70209580    -0.19260
H1742       H  0.77631782  0.92965147  0.77340057     0.18510
H1743       H  0.65470110  0.97429778  0.65191204     0.18510
F1744       F  0.62752028  0.90813352  0.71755326    -0.19250
C1745       C  0.75255404  0.82727838  0.58171391    -0.20680
C1746       C  0.71124295  0.83744237  0.60181896    -0.08720
C1747       C  0.67042095  0.81093865  0.59207154     0.30140
C1748       C  0.67204490  0.77359359  0.56447232    -0.20680
C1749       C  0.71493618  0.75977438  0.54788153    -0.08740
C1750       C  0.75587449  0.78553012  0.56152633     0.30140
F1751       F  0.80017064  0.76803844  0.56267353    -0.19260
H1752       H  0.78523801  0.84526442  0.59032329     0.18510
H1753       H  0.64001902  0.75390959  0.56016295     0.18510
F1754       F  0.62967111  0.81888515  0.61208687    -0.19250
C1755       C  0.74994113  0.71058896  0.88279342    -0.20680
C1756       C  0.76365086  0.75903770  0.87639776    -0.08720
C1757       C  0.73511318  0.79357066  0.89284950     0.30140
C1758       C  0.69783118  0.77903994  0.91980021    -0.20680
C1759       C  0.68947932  0.73015491  0.93262162    -0.08740
C1760       C  0.71143894  0.69664485  0.90895916     0.30140
F1761       F  0.69694513  0.65046594  0.91233377    -0.19260
H1762       H  0.77111428  0.68299139  0.87098977     0.18510
H1763       H  0.68338501  0.80554728  0.93937257     0.18510
F1764       F  0.75143714  0.83850448  0.89705400    -0.19250
C1765       C  0.59454570  0.76684340  0.74390837    -0.20680
C1766       C  0.57864092  0.75429479  0.78826627    -0.08720
C1767       C  0.60411640  0.72238179  0.82111897     0.30140
C1768       C  0.64612025  0.70344612  0.80890842    -0.20680
C1769       C  0.66255334  0.71709926  0.76473053    -0.08740
C1770       C  0.63413101  0.74526112  0.73107757     0.30140
F1771       F  0.64554289  0.75301264  0.68604644    -0.19260
H1772       H  0.57438331  0.79067554  0.71818310     0.18510
H1773       H  0.66616287  0.67898886  0.83357976     0.18510
F1774       F  0.58776579  0.70894162  0.86381404    -0.19250
C1775       C  0.92360433  0.75804896  0.75664533    -0.20680
C1776       C  0.94848145  0.75384380  0.79950350    -0.08720
C1777       C  0.93829391  0.78466457  0.83248607     0.30140
C1778       C  0.90930890  0.82422729  0.81913775    -0.20680
C1779       C  0.88982527  0.83266682  0.77352271    -0.08740
C1780       C  0.89732215  0.79912902  0.74245204     0.30140
F1781       F  0.89007967  0.81139697  0.69614203    -0.19260
H1782       H  0.93294157  0.73576717  0.73043654     0.18510
H1783       H  0.90551069  0.85049143  0.84307917     0.18510
F1784       F  0.96303201  0.78184373  0.87400885    -0.19250
C1785       C  0.84963827  0.73879184  0.47428679    -0.20680
C1786       C  0.87441336  0.70133564  0.50176501    -0.08720
C1787       C  0.84544378  0.66969612  0.03035667     0.30140
C1788       C  0.79530010  0.67442821  0.02912660    -0.20680
C1789       C  0.77019520  0.71238760  0.50201216    -0.08740
C1790       C  0.80065024  0.74684614  0.47822613     0.30140
F1791       F  0.78671164  0.79306106  0.46941081    -0.19260
H1792       H  0.86947288  0.76541829  0.45310796     0.18510
H1793       H  0.77633233  0.65067266  0.05351014     0.18510
F1794       F  0.86467192  0.63576508  0.06253028    -0.19250
C1795       C  0.60298913  0.67908631  0.52124127    -0.20680
C1796       C  0.62340489  0.71597036  0.99058789    -0.08720
C1797       C  0.58939729  0.74797045  0.96530260     0.30140
C1798       C  0.54015321  0.74513890  0.97309803    -0.20680
C1799       C  0.52038962  0.71013062  0.00538925    -0.08740
C1800       C  0.55321271  0.67572518  0.52784575     0.30140
F1801       F  0.53743757  0.63737586  0.55543212    -0.19260
H1802       H  0.62587035  0.65176614  0.53978961     0.18510
H1803       H  0.51683260  0.77103434  0.95329863     0.18510
F1804       F  0.60278169  0.78321610  0.93264231    -0.19250
C1805       C  0.70603436  0.03213733  0.80919512    -0.20680
C1806       C  0.74415630  0.54052961  0.84164461    -0.08720
C1807       C  0.78557988  0.55751624  0.81880645     0.30140
C1808       C  0.78827376  0.56291549  0.76847460    -0.20680
C1809       C  0.74989773  0.55307893  0.73660758    -0.08740
C1810       C  0.70857289  0.03907667  0.75949561     0.30140
F1811       F  0.66883549  0.03436908  0.73337096    -0.19260
H1812       H  0.67220977  0.02116203  0.82224070     0.18510
H1813       H  0.82137122  0.57509422  0.75463743     0.18510
F1814       F  0.82405286  0.56965415  0.84447243    -0.19250
C1815       C  0.72620046  0.57025652  0.56264532    -0.20680
C1816       C  0.74215956  0.03038902  0.59413012    -0.08720
C1817       C  0.75838358  0.99150294  0.57147292     0.30140
C1818       C  0.75970822  0.99334740  0.52186967    -0.20680
C1819       C  0.74719780  0.03465114  0.49011693    -0.08740
C1820       C  0.73013422  0.57300449  0.51305274     0.30140
F1821       F  0.71864187  0.61489779  0.48802607    -0.19260
H1822       H  0.71085874  0.60041835  0.57612904     0.18510
H1823       H  0.77348933  0.96236315  0.50824341     0.18510
F1824       F  0.77574137  0.95152361  0.59727795    -0.19250
C1825       C  0.55838886  0.85509699  0.81334547    -0.20680
C1826       C  0.52638283  0.82590102  0.78980004    -0.08720
C1827       C  0.99857924  0.85209522  0.75360986     0.30140
C1828       C  0.99342155  0.90311536  0.74952789    -0.20680
C1829       C  0.52173740  0.93193687  0.77671813    -0.08740
C1830       C  0.55837008  0.90644494  0.80428914     0.30140
F1831       F  0.59686635  0.93059174  0.81879786    -0.19260
H1832       H  0.58588459  0.83796492  0.83666431     0.18510
H1833       H  0.96898412  0.92039185  0.72292222     0.18510
F1834       F  0.98142024  0.82911136  0.71837567    -0.19250
C1835       C  0.53811049  0.60117906  0.78418874    -0.20680
C1836       C  0.00285172  0.57083430  0.80413110    -0.08720
C1837       C  0.96378843  0.59507450  0.81860458     0.30140
C1838       C  0.96254578  0.64643613  0.81675078    -0.20680
C1839       C  0.99910403  0.67729970  0.79860728    -0.08740
C1840       C  0.53437276  0.65218437  0.77797884     0.30140
F1841       F  0.56225489  0.67513706  0.74649655    -0.19260
H1842       H  0.56848750  0.58546482  0.77123922     0.18510
H1843       H  0.93221152  0.66199220  0.83015265     0.18510
F1844       F  0.92706171  0.56907936  0.83627101    -0.19250
C1845       C  0.93134347  0.79689902  0.10407330    -0.20680
C1846       C  0.47245298  0.79161106  0.63287938    -0.08720
C1847       C  0.49449675  0.74691148  0.63780582     0.30140
C1848       C  0.48742831  0.71790493  0.60240849    -0.20680
C1849       C  0.45956390  0.73461362  0.56221682    -0.08740
C1850       C  0.92914012  0.77321369  0.06448247     0.30140
F1851       F  0.90380504  0.79375999  0.02669291    -0.19260
H1852       H  0.91062952  0.82937590  0.10282222     0.18510
H1853       H  0.50772921  0.68554067  0.60481100     0.18510
F1854       F  0.53028621  0.73671890  0.66991533    -0.19250
C1855       C  0.48300021  0.60465716  0.92724601    -0.20680
C1856       C  0.97778939  0.56325363  0.95845891    -0.08720
C1857       C  0.95993921  0.56670774  0.00132011     0.30140
C1858       C  0.94360008  0.60938959  0.01203016    -0.20680
C1859       C  0.94122256  0.64933554  0.97873216    -0.08740
C1860       C  0.46271984  0.64780213  0.93645751     0.30140
F1861       F  0.46781188  0.68849691  0.90696077    -0.19260
H1862       H  0.50399908  0.60372138  0.89762219     0.18510
H1863       H  0.93629284  0.61177177  0.54781745     0.18510
F1864       F  0.96108337  0.52871915  0.03433767    -0.19250
C1865       C  0.84048290  0.55519947  0.47475294    -0.20680
C1866       C  0.81600980  0.53446431  0.43865610    -0.08720
C1867       C  0.83185184  0.98921970  0.92882444     0.30140
C1868       C  0.85922825  0.96046798  0.96243804    -0.20680
C1869       C  0.87148697  0.47669458  0.50568017    -0.08740
C1870       C  0.86234795  0.52480829  0.51125242     0.30140
F1871       F  0.87111088  0.54141551  0.55293321    -0.19260
H1872       H  0.83075628  0.59081299  0.48160402     0.18510
H1873       H  0.86821815  0.92456990  0.95561142     0.18510
F1874       F  0.81435618  0.96942829  0.89100189    -0.19250
C1875       C  0.64072202  0.50664873  0.96994308    -0.20680
C1876       C  0.65451536  0.96045687  0.99058623    -0.08720
C1877       C  0.68398616  0.93297952  0.46699551     0.30140
C1878       C  0.70380967  0.95411342  0.42642588    -0.20680
C1879       C  0.69500887  0.00279031  0.91028088    -0.08520
C1880       C  0.65834253  0.52632885  0.92823910     0.30140
F1881       F  0.64694168  0.57208035  0.91095954    -0.19260
H1882       H  0.61891542  0.52928844  0.98753807     0.18510
H1883       H  0.73154129  0.93514148  0.41219145     0.18510
F1884       F  0.69709864  0.88789673  0.48524883    -0.19250
C1885       C  0.54796060  0.47618064  0.87676749    -0.20680
C1886       C  0.00438556  0.48592199  0.85309508    -0.08720
C1887       C  0.96651065  0.95405343  0.86151872     0.30140
C1888       C  0.97276292  0.91278996  0.89322317    -0.20680
C1889       C  0.01704738  0.40226558  0.91604042    -0.08740
C1890       C  0.55481886  0.43335497  0.90595810     0.30140
F1891       F  0.59881785  0.42098985  0.92207126    -0.19260
H1892       H  0.57811709  0.49884901  0.86823298     0.18510
H1893       H  0.94274827  0.88982010  0.90106101     0.18510
F1894       F  0.92456168  0.96166277  0.83726395    -0.19250
C1895       C  0.99311250  0.07419285  0.66396835    -0.20680
C1896       C  0.53540638  0.06741267  0.64315511    -0.08720
C1897       C  0.57465531  0.05362181  0.67243982     0.30140
C1898       C  0.56679821  0.02182717  0.71211645    -0.20680
C1899       C  0.52114355  0.01579948  0.72732664    -0.08740
C1900       C  0.98440102  0.04473491  0.70487401     0.30140
F1901       F  0.94055570  0.04284476  0.72129373    -0.19260
H1902       H  0.96369954  0.09159756  0.64354280     0.18510
H1903       H  0.59522027  0.00174486  0.73114521     0.18510
F1904       F  0.61809508  0.05704008  0.65524645    -0.19250
loop_ 
_geom_bond_atom_site_label_1 
_geom_bond_atom_site_label_2 
_geom_bond_distance 
_geom_bond_site_symmetry_2 
_ccdc_geom_bond_type 
Zn1           O6   2.037       .  S
Zn1          O10   1.939       .  S
Zn1          O17   1.951       .  S
Zn1        O1195   1.933       .  S
Zn2           O7   1.954   1_565  S
Zn2           O9   1.984   1_564  S
Zn2          O13   1.957       .  S
Zn2           O5   1.903       .  S
Zn3           O8   2.044       .  S
Zn3          O11   1.951       .  S
Zn3          O14   1.969       .  S
Zn3        O1433   1.891       .  S
Zn4          O12   2.021       .  S
Zn4          O15   2.027       .  S
Zn4          O16   2.047       .  S
Zn4         O719   1.963       .  S
O5        Zn1191   1.933   1_454  S
O5        Zn1431   1.891   1_455  S
O5         Zn718   1.963       .  S
O6           C18   1.280   1_565  A
O7          C495   1.262       .  A
O8          C734   1.267       .  A
O9         C1208   1.269   1_455  A
O10          C20   1.254       .  A
O11         C971   1.278       .  A
O12         C259   1.287       .  A
O13         C498   1.254       .  A
O14         C973   1.277       .  A
O15         C260   1.266       .  A
O16        C1451   1.266       .  A
O17          C23   1.250       .  A
C18        O1199   1.269       .  A
C18         C190   1.441       .  S
C19         O483   1.262       .  A
C19         O963   1.278       .  A
C19         C230   1.444       .  S
C20         O722   1.267       .  A
C20         C441   1.478       .  S
C21         O250   1.287       .  A
C21         O966   1.277   1_455  A
C21         C180   1.459   1_455  S
C22         O489   1.254       .  A
C22         O253   1.266       .  A
C22         C448   1.468   1_554  S
C23        O1444   1.266       .  A
C23         C223   1.470       .  S
C24         C163   1.572       .  S
C24         C233   1.452       .  S
C24         C501   1.388       .  D
C25        C1122   1.567       .  S
C25        C1172   1.456   1_545  S
C25         C500   1.388   1_545  D
C26         C140   1.615       .  S
C26         C689   1.471       .  S
C26         C265   1.433       .  D
C27         C200   1.485       .  S
C27         C629   1.623       .  S
C27         C264   1.433       .  D
C28         C193   1.453       .  S
C28         C358   1.576       .  S
C28         C981   1.397       .  D
C29         C133   1.587   1_655  S
C29         C421   1.480       .  S
C29         C980   1.397       .  D
C30         C110   1.464       .  S
C30         C173   1.593       .  S
C30         C983   1.414       .  D
C31         C100   1.440       .  S
C31         C160   1.580       .  S
C31         C982   1.414   1_455  D
Zn32         O37   2.035       .  S
Zn32         O41   1.989       .  S
Zn32         O48   2.053       .  S
Zn32         O36   1.943       .  S
Zn33         O38   2.109       .  S
Zn33         O40   2.059       .  S
Zn33         O44   2.007       .  S
Zn33         O36   2.031       .  S
Zn34         O39   1.936       .  S
Zn34         O42   2.002       .  S
Zn34         O45   1.970       .  S
Zn34         O36   1.934       .  S
Zn35         O43   2.049       .  S
Zn35         O46   1.975       .  S
Zn35         O47   1.986       .  S
Zn35         O36   2.066       .  S
O37          C49   1.269       .  A
O38          C50   1.270       .  A
O39          C51   1.256       .  A
O40          C49   1.270       .  A
O41          C51   1.268       .  A
O42          C50   1.277       .  A
O43          C52   1.256       .  A
O44          C53   1.262       .  A
O45          C52   1.244       .  A
O46          C53   1.270       .  A
O47          C54   1.274       .  A
O48          C54   1.277       .  A
C49         C113   1.467       .  S
C50          C70   1.473       .  S
C51          C80   1.459       .  S
C52         C103   1.450       .  S
C53          C90   1.474       .  S
C54          C60   1.455       .  S
C55          C93   1.477       .  S
C55         C130   1.588       .  S
C55         C294   1.433       .  D
C56          C83   1.518       .  S
C56         C123   1.590       .  S
C56         C293   1.433   1_554  D
C57          C73   1.468       .  S
C57         C150   1.595       .  S
C57         C534   1.425       .  D
C58          C63   1.463       .  S
C58         C143   1.622       .  S
C58         C533   1.425       .  D
C59          C60   1.403       .  A
C59          C64   1.388       .  A
C59          H66   1.082       .  S
C60          C61   1.404       .  A
C61          C62   1.397       .  A
C61          F68   1.358       .  S
C62          C63   1.403       .  A
C62          H67   1.084       .  S
C63          C64   1.396       .  A
C64          F65   1.358       .  S
C69          C70   1.390       .  A
C69          C74   1.369       .  A
C69          H76   1.060       .  S
C70          C71   1.408       .  A
C71          C72   1.411       .  A
C71          F78   1.357       .  S
C72          C73   1.410       .  A
C72          H77   1.081       .  S
C73          C74   1.392       .  A
C74          F75   1.360       .  S
C79          C80   1.387       .  A
C79          C84   1.375       .  A
C79          H86   1.084       .  S
C80          C81   1.406       .  A
C81          C82   1.394       .  A
C81          F88   1.357       .  S
C82          C83   1.410       .  A
C82          H87   1.069       .  S
C83          C84   1.426       .  A
C84          F85   1.354       .  S
C89          C90   1.402       .  A
C89          C94   1.393       .  A
C89          H96   1.083       .  S
C90          C91   1.411       .  A
C91          C92   1.382       .  A
C91          F98   1.354       .  S
C92          C93   1.397       .  A
C92          H97   1.084       .  S
C93          C94   1.398       .  A
C94          F95   1.348       .  S
C99         C100   1.392       .  A
C99         C104   1.373       .  A
C99         H106   1.083       .  S
C100        C101   1.403       .  A
C101        C102   1.392       .  A
C101        F108   1.357       .  S
C102        C103   1.398       .  A
C102        H107   1.074       .  S
C103        C104   1.404       .  A
C104        F105   1.356       .  S
C109        C110   1.390       .  A
C109        C114   1.387       .  A
C109        H116   1.085       .  S
C110        C111   1.406       .  A
C111        C112   1.392       .  A
C111        F118   1.356       .  S
C112        C113   1.401       .  A
C112        H117   1.080       .  S
C113        C114   1.403       .  A
C114        F115   1.352       .  S
C119        C120   1.410   1_556  A
C119        C124   1.427       .  A
C119        H126   1.083       .  S
C120        C266   1.576   1_554  S
C120        C359   1.430       .  A
C121        C122   1.432       .  A
C121        C358   1.430       .  A
C121        F128   1.348       .  S
C122        C361   1.415       .  A
C122        H127   1.076       .  S
C123        C124   1.431   1_554  A
C123        C360   1.415       .  A
C124        F125   1.348       .  S
C129        C134   1.440       .  A
C129        C368   1.421   1_554  A
C129        H136   1.083       .  S
C130        C131   1.435       .  A
C130        C367   1.421       .  A
C131        C132   1.431       .  A
C131        F138   1.352       .  S
C132        C133   1.408       .  A
C132        H137   1.079       .  S
C133        C372   1.428       .  A
C134        C371   1.428       .  A
C134        F135   1.349       .  S
C139        C144   1.438       .  A
C139        C616   1.433       .  A
C139        H146   1.082       .  S
C140        C141   1.433       .  A
C140        C615   1.433       .  A
C141        C142   1.457       .  A
C141        F148   1.354       .  S
C142        C143   1.438       .  A
C142        H147   1.080       .  S
C143        C620   1.413       .  A
C144        C619   1.413       .  A
C144        F145   1.341       .  S
C149        C154   1.443       .  A
C149        C626   1.417       .  A
C149        H156   1.078       .  S
C150        C151   1.430       .  A
C150        C625   1.417       .  A
C151        C152   1.437       .  A
C151        F158   1.352       .  S
C152        C153   1.426   1_554  A
C152        H157   1.081       .  S
C153        C503   1.623       .  S
C153        C630   1.428   1_556  A
C154        C629   1.428   1_554  A
C154        F155   1.338   1_554  S
C159        C160   1.420       .  A
C159        C164   1.431       .  A
C159        H166   1.083       .  S
C160       C1113   1.416   1_455  A
C161        C162   1.428       .  A
C161       C1112   1.416       .  A
C161        F168   1.340       .  S
C162       C1115   1.412       .  A
C162        H167   1.083       .  S
C163        C164   1.422       .  A
C163       C1114   1.412   1_455  A
C164        F165   1.355       .  S
C169        C174   1.423       .  A
C169       C1122   1.412       .  A
C169        H176   1.079       .  S
C170        C977   1.567       .  S
C170        C171   1.416       .  A
C170       C1121   1.412       .  A
C171        C172   1.434       .  A
C171        F178   1.356       .  S
C172        C173   1.428       .  A
C172        H177   1.082       .  S
C173       C1126   1.428       .  A
C174       C1125   1.428   1_455  A
C174        F175   1.344       .  S
C179        C184   1.392       .  A
C179       C1370   1.403       .  A
C179        H186   1.085       .  S
C180        C181   1.394       .  A
C180       C1369   1.403       .  A
C181        C182   1.389       .  A
C181        F188   1.351   1_655  S
C182        C183   1.409       .  A
C182        H187   1.073   1_655  S
C183        C267   1.480       .  S
C183       C1374   1.407       .  A
C184       C1373   1.407       .  A
C184        F185   1.351       .  S
C189        C194   1.404       .  A
C189       C1142   1.396       .  A
C189        H196   1.076   1_655  S
C190        C191   1.383       .  A
C190       C1141   1.396       .  A
C191        C192   1.363       .  A
C191        F198   1.344       .  S
C192        C193   1.388       .  A
C192        H435   1.078       .  S
C193       C1146   1.406       .  A
C194       C1145   1.406       .  A
C194        F195   1.353       .  S
H197        C430   1.078       .  S
C199        C200   1.406       .  A
C199        C204   1.399   1_556  A
C199        H206   1.082       .  S
C200        C915   1.410   1_545  A
C201        C202   1.396       .  A
C201        C914   1.410       .  A
C201        F208   1.356       .  S
C202        C917   1.409       .  A
C202        H207   1.083       .  S
C203        C258   1.478       .  S
C203        C204   1.405   1_565  A
C203        C916   1.409   1_554  A
C204        F205   1.357       .  S
C209        C214   1.386       .  A
C209        C686   1.409   1_545  A
C209        H216   1.080       .  S
C210        C260   1.468       .  S
C210        C685   1.409       .  A
C210        C449   1.405       .  A
C211        C212   1.398       .  A
C211        C448   1.405       .  A
C211        F218   1.357       .  S
C212        C451   1.410       .  A
C212        H217   1.082       .  S
C213        C502   1.471       .  S
C213        C450   1.410       .  A
C213        C690   1.393       .  A
C214        C689   1.393       .  A
C214        F215   1.355       .  S
C219        C224   1.392       .  A
C219       C1172   1.397       .  A
C219        H226   1.084       .  S
C220        C977   1.456   1_565  S
C220       C1171   1.397       .  A
C220        C697   1.405       .  A
C221        C222   1.395       .  A
C221        C696   1.405       .  A
C221        F228   1.357       .  S
C222        C699   1.408       .  A
C222        H227   1.082       .  S
C223        C698   1.408       .  A
C223       C1176   1.398       .  A
C224       C1175   1.398       .  A
C224        F225   1.346       .  S
C229        C234   1.395       .  A
C229       C1182   1.400       .  A
C229        H236   1.084       .  S
C230        C231   1.395       .  A
C230       C1181   1.400   1_455  A
C231        C232   1.396       .  A
C231        F238   1.356       .  S
C232        C233   1.397       .  A
C232        H237   1.078       .  S
C233       C1186   1.411   1_455  A
C234       C1185   1.411       .  A
C234        F235   1.358       .  S
Zn239       O244   2.037       .  S
Zn239       O248   1.940   1_556  S
Zn239       O255   1.951       .  S
Zn239       O957   1.933   1_556  S
Zn240       O245   1.954   1_565  S
Zn240       O247   1.984   1_565  S
Zn240       O251   1.957       .  S
Zn240       O243   1.903       .  S
Zn241       O246   2.044       .  S
Zn241       O249   1.951       .  S
Zn241       O252   1.969       .  S
Zn241      O1671   1.891       .  S
Zn242       O250   2.021       .  S
Zn242       O253   2.027       .  S
Zn242       O254   2.047   1_554  S
Zn242       O481   1.963       .  S
O243       Zn953   1.933   1_455  S
O243      Zn1669   1.891   1_455  S
O243       Zn480   1.963       .  S
O244        C256   1.280   1_565  A
O245        C733   1.262       .  A
O246        C496   1.267       .  A
O247        C970   1.269   1_455  A
O248        C258   1.254       .  A
O249       C1209   1.278       .  A
O251        C736   1.254       .  A
O252       C1211   1.277       .  A
O254       C1689   1.266       .  A
O255        C261   1.250       .  A
C256        O961   1.269       .  A
C256        C428   1.441       .  S
C257        O721   1.262       .  A
C257       O1201   1.278       .  A
C257        C468   1.444       .  S
C258        O484   1.267       .  A
C259       O1204   1.277   1_455  A
C259        C418   1.459   1_455  S
C260        O727   1.254       .  A
C261       O1682   1.266       .  A
C261        C461   1.470       .  S
C262        C401   1.572       .  S
C262        C471   1.452       .  S
C262        C739   1.388       .  D
C263       C1360   1.567       .  S
C263       C1410   1.456   1_545  S
C263        C738   1.388   1_545  D
C264        C378   1.615       .  S
C264        C927   1.471       .  S
C265        C867   1.623       .  S
C265        C438   1.485       .  S
C266        C431   1.453       .  S
C266       C1219   1.397   1_556  D
C267        C371   1.587   1_655  S
C267       C1218   1.397   1_554  D
C268        C348   1.464       .  S
C268        C411   1.593       .  S
C268       C1221   1.414       .  D
C269        C338   1.440       .  S
C269        C398   1.580       .  S
C269       C1220   1.414   1_455  D
Zn270       O275   2.035       .  S
Zn270       O279   1.989       .  S
Zn270       O286   2.053       .  S
Zn270       O274   1.943       .  S
Zn271       O276   2.109       .  S
Zn271       O278   2.059       .  S
Zn271       O282   2.008       .  S
Zn271       O274   2.031       .  S
Zn272       O277   1.936       .  S
Zn272       O280   2.002       .  S
Zn272       O283   1.970       .  S
Zn272       O274   1.933       .  S
Zn273       O281   2.049       .  S
Zn273       O284   1.975       .  S
Zn273       O285   1.986       .  S
Zn273       O274   2.066       .  S
O275        C287   1.269       .  A
O276        C288   1.270       .  A
O277        C289   1.256       .  A
O278        C287   1.270       .  A
O279        C289   1.268       .  A
O280        C288   1.277       .  A
O281        C290   1.256       .  A
O282        C291   1.262       .  A
O283        C290   1.244       .  A
O284        C291   1.270       .  A
O285        C292   1.274       .  A
O286        C292   1.278       .  A
C287        C351   1.467       .  S
C288        C308   1.473       .  S
C289        C318   1.460       .  S
C290        C341   1.450       .  S
C291        C328   1.474       .  S
C292        C298   1.455       .  S
C293        C331   1.477       .  S
C293        C368   1.588       .  S
C294        C321   1.518       .  S
C294        C361   1.590       .  S
C295        C311   1.468       .  S
C295        C388   1.595       .  S
C295        C772   1.425       .  D
C296        C301   1.463       .  S
C296        C381   1.622       .  S
C296        C771   1.425       .  D
C297        C298   1.403       .  A
C297        C302   1.388       .  A
C297        H304   1.082       .  S
C298        C299   1.404       .  A
C299        C300   1.397       .  A
C299        F306   1.358       .  S
C300        C301   1.403       .  A
C300        H305   1.084       .  S
C301        C302   1.396       .  A
C302        F303   1.358       .  S
C307        C308   1.390       .  A
C307        C312   1.369       .  A
C307        H314   1.065       .  S
C308        C309   1.408       .  A
C309        C310   1.411       .  A
C309        F316   1.357       .  S
C310        C311   1.410       .  A
C310        H315   1.082       .  S
C311        C312   1.393       .  A
C312        F313   1.360       .  S
C317        C318   1.387       .  A
C317        C322   1.375       .  A
C317        H324   1.084       .  S
C318        C319   1.406       .  A
C319        C320   1.394       .  A
C319        F326   1.357       .  S
C320        C321   1.410       .  A
C320        H325   1.069       .  S
C321        C322   1.426       .  A
C322        F323   1.354       .  S
C327        C328   1.402       .  A
C327        C332   1.393       .  A
C327        H334   1.083       .  S
C328        C329   1.411       .  A
C329        C330   1.382       .  A
C329        F336   1.354       .  S
C330        C331   1.397       .  A
C330        H335   1.084       .  S
C331        C332   1.398       .  A
C332        F333   1.348       .  S
C337        C338   1.392       .  A
C337        C342   1.373       .  A
C337        H344   1.083       .  S
C338        C339   1.403       .  A
C339        C340   1.392       .  A
C339        F346   1.357       .  S
C340        C341   1.398       .  A
C340        H345   1.074       .  S
C341        C342   1.404       .  A
C342        F343   1.356       .  S
C347        C348   1.390       .  A
C347        C352   1.387       .  A
C347        H354   1.085       .  S
C348        C349   1.406       .  A
C349        C350   1.392       .  A
C349        F356   1.356       .  S
C350        C351   1.401       .  A
C350        H355   1.080       .  S
C351        C352   1.403       .  A
C352        F353   1.352       .  S
C357        C358   1.410       .  A
C357        C362   1.427       .  A
C357        H364   1.083       .  S
C359        C360   1.432       .  A
C359        F366   1.348       .  S
C360        H365   1.076       .  S
C361        C362   1.431       .  A
C362        F363   1.348       .  S
C367        C372   1.440       .  A
C367        H374   1.083       .  S
C368        C369   1.435       .  A
C369        C370   1.431       .  A
C369        F376   1.352       .  S
C370        C371   1.408   1_556  A
C370        H375   1.079       .  S
C372        F373   1.349       .  S
C377        C854   1.433       .  A
C377        C382   1.438       .  A
C377        H384   1.082       .  S
C378        C853   1.433       .  A
C378        C379   1.433       .  A
C379        C380   1.457       .  A
C379        F386   1.354       .  S
C380        C381   1.438       .  A
C380        H385   1.080       .  S
C381        C858   1.413       .  A
C382        C857   1.413       .  A
C382        F383   1.341       .  S
C387        C864   1.417       .  A
C387        C392   1.443       .  A
C387        H394   1.078       .  S
C388        C863   1.417       .  A
C388        C389   1.430       .  A
C389        C390   1.437       .  A
C389        F396   1.352       .  S
C390        C391   1.426       .  A
C390        H395   1.081       .  S
C391        C741   1.623       .  S
C391        C868   1.428       .  A
C392        C867   1.428       .  A
C392        F393   1.338       .  S
C397        C398   1.420       .  A
C397        C402   1.431       .  A
C397        H404   1.083       .  S
C398       C1351   1.416   1_455  A
C399       C1350   1.416       .  A
C399        C400   1.428       .  A
C399        F406   1.340       .  S
C400       C1353   1.412       .  A
C400        H405   1.083       .  S
C401       C1352   1.412   1_455  A
C401        C402   1.422       .  A
C402        F403   1.355       .  S
C407       C1360   1.412       .  A
C407        C412   1.423       .  A
C407        H414   1.079       .  S
C408       C1215   1.567       .  S
C408       C1359   1.412       .  A
C408        C409   1.416       .  A
C409        C410   1.434       .  A
C409        F416   1.356       .  S
C410        C411   1.428       .  A
C410        H415   1.082       .  S
C411       C1364   1.428       .  A
C412       C1363   1.428   1_455  A
C412        F413   1.344       .  S
C417       C1132   1.403       .  A
C417        C422   1.392       .  A
C417        H424   1.085       .  S
C418       C1131   1.403       .  A
C418        C419   1.394       .  A
C419        C420   1.389       .  A
C419        F426   1.351   1_655  S
C420        C421   1.409       .  A
C420        H425   1.073   1_655  S
C421       C1136   1.407       .  A
C422       C1135   1.407       .  A
C422        F423   1.351       .  S
C427       C1380   1.396       .  A
C427        C432   1.404       .  A
C427        H434   1.076   1_655  S
C428       C1379   1.396       .  A
C428        C429   1.383   1_556  A
C429        C430   1.363       .  A
C429        F436   1.344       .  S
C430        C431   1.388   1_554  A
C431       C1384   1.406       .  A
C432       C1383   1.406       .  A
C432        F433   1.353       .  S
C437        C438   1.406       .  A
C437        C442   1.399       .  A
C437        H444   1.082       .  S
C438        C677   1.410   1_545  A
C439        C676   1.410       .  A
C439        C440   1.396       .  A
C439        F446   1.356       .  S
C440        C679   1.409   1_556  A
C440        H445   1.083       .  S
C441        C678   1.409       .  A
C441        C442   1.405   1_565  A
C442        F443   1.357       .  S
C447        C924   1.409   1_545  A
C447        C452   1.386       .  A
C447        H454   1.080       .  S
C448        C923   1.409       .  A
C449        C450   1.398       .  A
C449        F456   1.357       .  S
C450        H455   1.082       .  S
C451        C740   1.471       .  S
C451        C928   1.393       .  A
C452        C927   1.393       .  A
C452        F453   1.355       .  S
C457       C1410   1.397       .  A
C457        C462   1.392       .  A
C457        H464   1.084       .  S
C458       C1215   1.456   1_565  S
C458       C1409   1.397       .  A
C458        C935   1.405       .  A
C459        C934   1.405       .  A
C459        C460   1.395       .  A
C459        F466   1.357       .  S
C460        C937   1.408       .  A
C460        H465   1.082       .  S
C461        C936   1.408       .  A
C461       C1414   1.398       .  A
C462       C1413   1.398       .  A
C462        F463   1.346       .  S
C467       C1420   1.400       .  A
C467        C472   1.395       .  A
C467        H474   1.084       .  S
C468       C1419   1.400   1_455  A
C468        C469   1.395       .  A
C469        C470   1.396       .  A
C469        F476   1.356       .  S
C470        C471   1.397       .  A
C470        H475   1.078       .  S
C471       C1424   1.411   1_455  A
C472       C1423   1.411       .  A
C472        F473   1.358       .  S
Zn477       O482   2.037       .  S
Zn477       O486   1.940       .  S
Zn477       O493   1.951       .  S
Zn477      O1671   1.933       .  S
Zn478       O483   1.954       .  S
Zn478       O485   1.985   1_554  S
Zn478       O489   1.957       .  S
Zn478       O481   1.903       .  S
Zn479       O484   2.044       .  S
Zn479       O487   1.951       .  S
Zn479       O490   1.969       .  S
Zn479       O957   1.891       .  S
Zn480       O488   2.021       .  S
Zn480       O491   2.027       .  S
Zn480       O492   2.047       .  S
O481      Zn1667   1.933   1_454  S
O481       Zn955   1.891   1_455  S
O482        C494   1.280       .  A
O485       C1684   1.269   1_455  A
O486        C496   1.254       .  A
O487       C1447   1.278   1_565  A
O488        C735   1.287       .  A
O490       C1449   1.277       .  A
O491        C736   1.266       .  A
O492        C975   1.266       .  A
O493        C499   1.250       .  A
C494       O1675   1.269       .  A
C494        C666   1.441       .  S
C495       O1439   1.278   1_545  A
C495        C706   1.444       .  S
C496        C917   1.478       .  S
C497        O726   1.287       .  A
C497       O1442   1.277   1_455  A
C497        C656   1.459   1_455  S
C498        O729   1.266       .  A
C498        C924   1.468   1_554  S
C499        O968   1.266       .  A
C499        C699   1.470       .  S
C500        C639   1.572       .  S
C500        C709   1.452   1_565  S
C501       C1598   1.567       .  S
C501       C1648   1.456       .  S
C502        C616   1.615       .  S
C502        C741   1.433       .  D
C503        C676   1.485       .  S
C503        C740   1.433       .  D
C504        C834   1.576       .  S
C504        C669   1.453       .  S
C504       C1457   1.397       .  D
C505        C609   1.587   1_655  S
C505        C897   1.480       .  S
C505       C1456   1.397       .  D
C506        C586   1.464       .  S
C506        C649   1.593       .  S
C506       C1459   1.414       .  D
C507        C576   1.440       .  S
C507        C636   1.580       .  S
C507       C1458   1.414   1_455  D
Zn508       O513   2.035       .  S
Zn508       O517   1.989       .  S
Zn508       O524   2.053       .  S
Zn508       O512   1.943       .  S
Zn509       O514   2.109       .  S
Zn509       O516   2.059       .  S
Zn509       O520   2.007       .  S
Zn509       O512   2.031       .  S
Zn510       O515   1.936       .  S
Zn510       O518   2.002       .  S
Zn510       O521   1.970       .  S
Zn510       O512   1.934       .  S
Zn511       O519   2.049       .  S
Zn511       O522   1.975       .  S
Zn511       O523   1.986       .  S
Zn511       O512   2.066       .  S
O513        C525   1.269       .  A
O514        C526   1.270       .  A
O515        C527   1.256       .  A
O516        C525   1.270       .  A
O517        C527   1.268       .  A
O518        C526   1.277       .  A
O519        C528   1.256       .  A
O520        C529   1.262       .  A
O521        C528   1.244       .  A
O522        C529   1.270       .  A
O523        C530   1.274       .  A
O524        C530   1.277       .  A
C525        C589   1.467       .  S
C526        C546   1.473       .  S
C527        C556   1.459       .  S
C528        C579   1.450       .  S
C529        C566   1.474       .  S
C530        C536   1.455       .  S
C531        C569   1.477       .  S
C531        C606   1.588       .  S
C531        C770   1.433       .  D
C532        C559   1.518       .  S
C532        C599   1.590       .  S
C532        C769   1.433   1_554  D
C533        C549   1.468   1_545  S
C533        C626   1.595       .  S
C534        C539   1.463       .  S
C534        C619   1.622       .  S
C535        C536   1.403       .  A
C535        C540   1.388       .  A
C535        H542   1.082       .  S
C536        C537   1.404       .  A
C537        C538   1.397       .  A
C537        F544   1.358       .  S
C538        C539   1.403       .  A
C538        H543   1.084       .  S
C539        C540   1.396       .  A
C540        F541   1.358       .  S
C545        C546   1.390       .  A
C545        C550   1.369       .  A
C545        H552   1.060       .  S
C546        C547   1.408       .  A
C547        C548   1.411       .  A
C547        F554   1.357       .  S
C548        C549   1.410       .  A
C548        H553   1.081       .  S
C549        C550   1.392       .  A
C550        F551   1.360       .  S
C555        C556   1.387       .  A
C555        C560   1.375       .  A
C555        H562   1.084       .  S
C556        C557   1.406       .  A
C557        C558   1.394       .  A
C557        F564   1.357       .  S
C558        C559   1.410       .  A
C558        H563   1.069       .  S
C559        C560   1.426       .  A
C560        F561   1.354       .  S
C565        C566   1.402       .  A
C565        C570   1.393       .  A
C565        H572   1.083       .  S
C566        C567   1.411       .  A
C567        C568   1.382       .  A
C567        F574   1.354       .  S
C568        C569   1.397       .  A
C568        H573   1.084       .  S
C569        C570   1.398       .  A
C570        F571   1.348       .  S
C575        C576   1.392       .  A
C575        C580   1.373       .  A
C575        H582   1.083       .  S
C576        C577   1.403       .  A
C577        C578   1.392       .  A
C577        F584   1.357       .  S
C578        C579   1.398       .  A
C578        H583   1.074       .  S
C579        C580   1.404       .  A
C580        F581   1.356       .  S
C585        C586   1.390       .  A
C585        C590   1.387       .  A
C585        H592   1.085       .  S
C586        C587   1.406       .  A
C587        C588   1.392       .  A
C587        F594   1.356       .  S
C588        C589   1.401       .  A
C588        H593   1.080       .  S
C589        C590   1.403       .  A
C590        F591   1.352       .  S
C595        C596   1.410   1_556  A
C595        C600   1.427       .  A
C595        H602   1.083       .  S
C596        C742   1.576   1_554  S
C596        C835   1.430       .  A
C597        C834   1.430       .  A
C597        C598   1.432       .  A
C597        F604   1.348       .  S
C598        C837   1.415       .  A
C598        H603   1.076       .  S
C599        C836   1.415       .  A
C599        C600   1.431   1_554  A
C600        F601   1.348       .  S
C605        C844   1.421   1_554  A
C605        C610   1.440       .  A
C605        H612   1.083       .  S
C606        C843   1.421       .  A
C606        C607   1.435       .  A
C607        C608   1.431       .  A
C607        F614   1.352       .  S
C608        C609   1.408       .  A
C608        H613   1.079       .  S
C609        C848   1.428       .  A
C610        C847   1.428       .  A
C610        F611   1.349       .  S
C615        C620   1.438       .  A
C615        H622   1.082       .  S
C616        C617   1.433       .  A
C617        C618   1.457       .  A
C617        F624   1.354       .  S
C618        C619   1.438       .  A
C618        H623   1.080       .  S
C620        F621   1.341       .  S
C625        C630   1.443       .  A
C625        H632   1.078       .  S
C626        C627   1.430   1_545  A
C627        C628   1.437       .  A
C627        F634   1.352       .  S
C628        C629   1.426   1_564  A
C628        H633   1.081       .  S
C630        F631   1.338   1_554  S
C635        C636   1.420       .  A
C635        C640   1.431       .  A
C635        H642   1.083       .  S
C636       C1589   1.416   1_455  A
C637       C1588   1.416       .  A
C637        C638   1.428       .  A
C637        F644   1.340       .  S
C638       C1591   1.412       .  A
C638        H643   1.083       .  S
C639       C1590   1.412   1_455  A
C639        C640   1.422       .  A
C640        F641   1.355       .  S
C645       C1598   1.412       .  A
C645        C650   1.423       .  A
C645        H652   1.079       .  S
C646       C1453   1.567       .  S
C646       C1597   1.412       .  A
C646        C647   1.416       .  A
C647        C648   1.434       .  A
C647        F654   1.356       .  S
C648        C649   1.428       .  A
C648        H653   1.082       .  S
C649       C1602   1.428       .  A
C650       C1601   1.428   1_455  A
C650        F651   1.344       .  S
C655       C1846   1.403       .  A
C655        C660   1.392       .  A
C655        H662   1.085       .  S
C656       C1845   1.403       .  A
C656        C657   1.394       .  A
C657        C658   1.389       .  A
C657        F664   1.351   1_655  S
C658        C659   1.409       .  A
C658        H663   1.073   1_655  S
C659        C743   1.480       .  S
C659       C1850   1.407       .  A
C660       C1849   1.407       .  A
C660        F661   1.351       .  S
C665       C1618   1.396       .  A
C665        C670   1.404       .  A
C665        H672   1.076   1_655  S
C666       C1617   1.396       .  A
C666        C667   1.383       .  A
C667        C668   1.363       .  A
C667        F674   1.344       .  S
C668        C669   1.388       .  A
C668        H911   1.078       .  S
C669       C1622   1.406       .  A
C670       C1621   1.406       .  A
C670        F671   1.353       .  S
H673        C906   1.078       .  S
C675        C676   1.406       .  A
C675        C680   1.399   1_556  A
C675        H682   1.082       .  S
C677        C678   1.396       .  A
C677        F684   1.356       .  S
C678        H683   1.083       .  S
C679        C734   1.478       .  S
C679        C680   1.405       .  A
C680        F681   1.357       .  S
C685        C690   1.386       .  A
C685        H692   1.080       .  S
C686        C736   1.468       .  S
C686        C925   1.405       .  A
C687        C924   1.405       .  A
C687        C688   1.398       .  A
C687        F694   1.357       .  S
C688        C927   1.410   1_565  A
C688        H693   1.082       .  S
C689        C926   1.410   1_545  A
C690        F691   1.355       .  S
C695       C1648   1.397       .  A
C695        C700   1.392       .  A
C695        H702   1.084       .  S
C696       C1453   1.456       .  S
C696       C1647   1.397       .  A
C697        C698   1.395       .  A
C697        F704   1.357       .  S
C698        H703   1.082       .  S
C699       C1652   1.398       .  A
C700       C1651   1.398       .  A
C700        F701   1.346       .  S
C705       C1658   1.400       .  A
C705        C710   1.395       .  A
C705        H712   1.084       .  S
C706       C1657   1.400   1_455  A
C706        C707   1.395       .  A
C707        C708   1.396       .  A
C707        F714   1.356       .  S
C708        C709   1.397       .  A
C708        H713   1.078       .  S
C709       C1662   1.411   1_455  A
C710       C1661   1.411       .  A
C710        F711   1.358       .  S
Zn715       O720   2.037       .  S
Zn715       O724   1.940   1_556  S
Zn715       O731   1.951       .  S
Zn715      O1433   1.933   1_556  S
Zn716       O721   1.954       .  S
Zn716       O723   1.984       .  S
Zn716       O727   1.957       .  S
Zn716       O719   1.903       .  S
Zn717       O722   2.044       .  S
Zn717       O725   1.951       .  S
Zn717       O728   1.969       .  S
Zn717      O1195   1.891       .  S
Zn718       O726   2.021       .  S
Zn718       O729   2.027       .  S
Zn718       O730   2.047   1_554  S
O719      Zn1429   1.933   1_455  S
O719      Zn1193   1.891   1_455  S
O720        C732   1.280       .  A
O723       C1446   1.269   1_455  A
O724        C734   1.254       .  A
O725       C1685   1.278   1_565  A
O728       C1687   1.277       .  A
O730       C1213   1.266       .  A
O731        C737   1.250       .  A
C732       O1437   1.269       .  A
C732        C904   1.441       .  S
C733       O1677   1.278   1_545  A
C733        C944   1.444       .  S
C735       O1680   1.277   1_455  A
C735        C894   1.459   1_455  S
C737       O1206   1.266       .  A
C737        C937   1.470       .  S
C738        C877   1.572       .  S
C738        C947   1.452   1_565  S
C739       C1836   1.567       .  S
C739       C1886   1.456       .  S
C740        C854   1.615       .  S
C741        C914   1.485       .  S
C742        C907   1.452       .  S
C742       C1695   1.397   1_556  D
C743        C847   1.587   1_655  S
C743       C1694   1.397   1_554  D
C744        C824   1.464       .  S
C744        C887   1.593       .  S
C744       C1697   1.414       .  D
C745        C814   1.440       .  S
C745        C874   1.580       .  S
C745       C1696   1.414   1_455  D
Zn746       O751   2.035       .  S
Zn746       O755   1.989       .  S
Zn746       O762   2.053       .  S
Zn746       O750   1.943       .  S
Zn747       O752   2.109       .  S
Zn747       O754   2.059       .  S
Zn747       O758   2.008       .  S
Zn747       O750   2.031       .  S
Zn748       O753   1.936       .  S
Zn748       O756   2.002       .  S
Zn748       O759   1.970       .  S
Zn748       O750   1.933       .  S
Zn749       O757   2.049       .  S
Zn749       O760   1.975       .  S
Zn749       O761   1.986       .  S
Zn749       O750   2.066       .  S
O751        C763   1.269       .  A
O752        C764   1.270       .  A
O753        C765   1.256       .  A
O754        C763   1.270       .  A
O755        C765   1.268       .  A
O756        C764   1.277       .  A
O757        C766   1.256       .  A
O758        C767   1.262       .  A
O759        C766   1.244       .  A
O760        C767   1.270       .  A
O761        C768   1.274       .  A
O762        C768   1.277       .  A
C763        C827   1.467       .  S
C764        C784   1.473       .  S
C765        C794   1.460       .  S
C766        C817   1.450       .  S
C767        C804   1.474       .  S
C768        C774   1.455       .  S
C769        C807   1.477       .  S
C769        C844   1.588       .  S
C770        C797   1.518       .  S
C770        C837   1.590       .  S
C771        C787   1.468   1_545  S
C771        C864   1.595       .  S
C772        C777   1.463       .  S
C772        C857   1.621       .  S
C773        C774   1.403       .  A
C773        C778   1.388       .  A
C773        H780   1.082       .  S
C774        C775   1.404       .  A
C775        C776   1.397       .  A
C775        F782   1.358       .  S
C776        C777   1.403       .  A
C776        H781   1.084       .  S
C777        C778   1.396       .  A
C778        F779   1.358       .  S
C783        C784   1.390       .  A
C783        C788   1.369       .  A
C783        H790   1.062       .  S
C784        C785   1.408       .  A
C785        C786   1.411       .  A
C785        F792   1.357       .  S
C786        C787   1.410       .  A
C786        H791   1.082       .  S
C787        C788   1.392       .  A
C788        F789   1.360       .  S
C793        C794   1.387       .  A
C793        C798   1.375       .  A
C793        H800   1.084       .  S
C794        C795   1.406       .  A
C795        C796   1.394       .  A
C795        F802   1.357       .  S
C796        C797   1.410       .  A
C796        H801   1.069       .  S
C797        C798   1.426       .  A
C798        F799   1.354       .  S
C803        C804   1.402       .  A
C803        C808   1.393       .  A
C803        H810   1.083       .  S
C804        C805   1.411       .  A
C805        C806   1.382       .  A
C805        F812   1.354       .  S
C806        C807   1.397       .  A
C806        H811   1.084       .  S
C807        C808   1.398       .  A
C808        F809   1.348       .  S
C813        C814   1.392       .  A
C813        C818   1.373       .  A
C813        H820   1.083       .  S
C814        C815   1.403       .  A
C815        C816   1.392       .  A
C815        F822   1.357       .  S
C816        C817   1.398       .  A
C816        H821   1.074       .  S
C817        C818   1.404       .  A
C818        F819   1.356       .  S
C823        C824   1.390       .  A
C823        C828   1.387       .  A
C823        H830   1.085       .  S
C824        C825   1.406       .  A
C825        C826   1.392       .  A
C825        F832   1.356       .  S
C826        C827   1.401       .  A
C826        H831   1.080       .  S
C827        C828   1.403       .  A
C828        F829   1.352       .  S
C833        C834   1.410       .  A
C833        C838   1.427       .  A
C833        H840   1.083       .  S
C835        C836   1.432       .  A
C835        F842   1.348       .  S
C836        H841   1.076       .  S
C837        C838   1.431       .  A
C838        F839   1.348       .  S
C843        C848   1.440       .  A
C843        H850   1.083       .  S
C844        C845   1.435       .  A
C845        C846   1.431       .  A
C845        F852   1.352       .  S
C846        C847   1.408   1_556  A
C846        H851   1.079       .  S
C848        F849   1.349       .  S
C853        C858   1.438       .  A
C853        H860   1.082       .  S
C854        C855   1.433       .  A
C855        C856   1.457       .  A
C855        F862   1.354       .  S
C856        C857   1.438       .  A
C856        H861   1.080       .  S
C858        F859   1.341       .  S
C863        C868   1.443       .  A
C863        H870   1.078       .  S
C864        C865   1.430   1_545  A
C865        C866   1.437       .  A
C865        F872   1.352       .  S
C866        C867   1.426   1_565  A
C866        H871   1.081       .  S
C868        F869   1.338       .  S
C873        C874   1.420       .  A
C873        C878   1.431       .  A
C873        H880   1.083       .  S
C874       C1827   1.416   1_455  A
C875       C1826   1.416       .  A
C875        C876   1.428       .  A
C875        F882   1.340       .  S
C876       C1829   1.412       .  A
C876        H881   1.083       .  S
C877       C1828   1.412   1_455  A
C877        C878   1.422       .  A
C878        F879   1.355       .  S
C883       C1836   1.412       .  A
C883        C888   1.423       .  A
C883        H890   1.079       .  S
C884       C1691   1.567       .  S
C884       C1835   1.412       .  A
C884        C885   1.416       .  A
C885        C886   1.434       .  A
C885        F892   1.356       .  S
C886        C887   1.428       .  A
C886        H891   1.082       .  S
C887       C1840   1.428       .  A
C888       C1839   1.428   1_455  A
C888        F889   1.344       .  S
C893       C1608   1.403       .  A
C893        C898   1.392       .  A
C893        H900   1.085       .  S
C894       C1607   1.403       .  A
C894        C895   1.394       .  A
C895        C896   1.389       .  A
C895        F902   1.351   1_655  S
C896        C897   1.409       .  A
C896        H901   1.073   1_655  S
C897       C1612   1.407       .  A
C898       C1611   1.407       .  A
C898        F899   1.351       .  S
C903       C1856   1.396       .  A
C903        C908   1.404       .  A
C903        H910   1.076   1_655  S
C904       C1855   1.396       .  A
C904        C905   1.383   1_556  A
C905        C906   1.363       .  A
C905        F912   1.344       .  S
C906        C907   1.388   1_554  A
C907       C1860   1.406       .  A
C908       C1859   1.406       .  A
C908        F909   1.353       .  S
C913        C914   1.406       .  A
C913        C918   1.399       .  A
C913        H920   1.082       .  S
C915        C916   1.396       .  A
C915        F922   1.356       .  S
C916        H921   1.083       .  S
C917        C918   1.405       .  A
C918        F919   1.357       .  S
C923        C928   1.386       .  A
C923        H930   1.080       .  S
C925        C926   1.398       .  A
C925        F932   1.357       .  S
C926        H931   1.082       .  S
C928        F929   1.355       .  S
C933       C1886   1.397       .  A
C933        C938   1.392       .  A
C933        H940   1.084       .  S
C934       C1691   1.456       .  S
C934       C1885   1.397       .  A
C935        C936   1.395       .  A
C935        F942   1.357       .  S
C936        H941   1.082       .  S
C937       C1890   1.398       .  A
C938       C1889   1.398       .  A
C938        F939   1.346       .  S
C943       C1896   1.400       .  A
C943        C948   1.395       .  A
C943        H950   1.084       .  S
C944       C1895   1.400   1_455  A
C944        C945   1.395       .  A
C945        C946   1.396       .  A
C945        F952   1.356       .  S
C946        C947   1.397       .  A
C946        H951   1.078       .  S
C947       C1900   1.411   1_455  A
C948       C1899   1.411       .  A
C948        F949   1.358       .  S
Zn953       O958   2.037       .  S
Zn953       O962   1.939       .  S
Zn953       O969   1.951       .  S
Zn954       O959   1.954   1_565  S
Zn954       O961   1.984   1_564  S
Zn954       O965   1.957       .  S
Zn954       O957   1.903       .  S
Zn955       O960   2.044       .  S
Zn955       O963   1.951   1_655  S
Zn955       O966   1.969       .  S
Zn956       O964   2.021       .  S
Zn956       O967   2.027       .  S
Zn956       O968   2.047       .  S
Zn956      O1671   1.963       .  S
O957      Zn1670   1.963       .  S
O958        C970   1.280   1_565  A
O959       C1447   1.262       .  A
O960       C1686   1.267       .  A
O962        C972   1.254       .  A
O964       C1211   1.287       .  A
O965       C1450   1.254       .  A
O967       C1212   1.266       .  A
O969        C975   1.250   1_655  A
C970       C1142   1.441       .  S
C971       O1435   1.262       .  A
C971       C1182   1.444       .  S
C972       O1674   1.267       .  A
C972       C1393   1.478       .  S
C973       O1202   1.287       .  A
C973       C1132   1.459       .  S
C974       O1441   1.254       .  A
C974       O1205   1.266       .  A
C974       C1400   1.468   1_554  S
C975       C1175   1.470       .  S
C976       C1115   1.572       .  S
C976       C1185   1.452       .  S
C976       C1453   1.388       .  D
C977       C1452   1.388   1_545  D
C978       C1092   1.615       .  S
C978       C1641   1.471       .  S
C978       C1217   1.433       .  D
C979       C1581   1.623       .  S
C979       C1152   1.485       .  S
C979       C1216   1.433       .  D
C980       C1310   1.576       .  S
C980       C1145   1.453       .  S
C981       C1085   1.587       .  S
C981       C1373   1.480       .  S
C982       C1062   1.464       .  S
C982       C1125   1.593       .  S
C983       C1052   1.440       .  S
C983       C1112   1.580       .  S
Zn984       O989   2.035       .  S
Zn984       O993   1.989       .  S
Zn984      O1000   2.053       .  S
Zn984       O988   1.943       .  S
Zn985       O990   2.109       .  S
Zn985       O992   2.059       .  S
Zn985       O996   2.007       .  S
Zn985       O988   2.031       .  S
Zn986       O991   1.936       .  S
Zn986       O994   2.002       .  S
Zn986       O997   1.970       .  S
Zn986       O988   1.934       .  S
Zn987       O995   2.049       .  S
Zn987       O998   1.975       .  S
Zn987       O999   1.986       .  S
Zn987       O988   2.066       .  S
O989       C1001   1.269       .  A
O990       C1002   1.270       .  A
O991       C1003   1.256       .  A
O992       C1001   1.270       .  A
O993       C1003   1.268       .  A
O994       C1002   1.277       .  A
O995       C1004   1.256       .  A
O996       C1005   1.262       .  A
O997       C1004   1.244       .  A
O998       C1005   1.270       .  A
O999       C1006   1.274       .  A
O1000      C1006   1.277       .  A
C1001      C1065   1.467       .  S
C1002      C1022   1.473       .  S
C1003      C1032   1.459       .  S
C1004      C1055   1.450       .  S
C1005      C1042   1.474       .  S
C1006      C1012   1.455       .  S
C1007      C1045   1.477       .  S
C1007      C1082   1.588       .  S
C1007      C1246   1.433       .  D
C1008      C1035   1.518       .  S
C1008      C1075   1.590       .  S
C1008      C1245   1.433   1_554  D
C1009      C1025   1.468       .  S
C1009      C1102   1.595       .  S
C1009      C1486   1.425       .  D
C1010      C1015   1.463       .  S
C1010      C1095   1.622       .  S
C1010      C1485   1.425       .  D
C1011      C1012   1.403       .  A
C1011      C1016   1.388       .  A
C1011      H1018   1.082       .  S
C1012      C1013   1.404       .  A
C1013      C1014   1.397       .  A
C1013      F1020   1.358       .  S
C1014      C1015   1.403       .  A
C1014      H1019   1.084       .  S
C1015      C1016   1.396       .  A
C1016      F1017   1.358       .  S
C1021      C1022   1.390       .  A
C1021      C1026   1.369       .  A
C1021      H1028   1.060       .  S
C1022      C1023   1.408       .  A
C1023      C1024   1.411       .  A
C1023      F1030   1.357       .  S
C1024      C1025   1.410       .  A
C1024      H1029   1.081       .  S
C1025      C1026   1.392       .  A
C1026      F1027   1.360       .  S
C1031      C1032   1.387       .  A
C1031      C1036   1.375       .  A
C1031      H1038   1.084       .  S
C1032      C1033   1.406       .  A
C1033      C1034   1.394       .  A
C1033      F1040   1.357       .  S
C1034      C1035   1.410       .  A
C1034      H1039   1.069       .  S
C1035      C1036   1.426       .  A
C1036      F1037   1.354       .  S
C1041      C1042   1.402       .  A
C1041      C1046   1.393       .  A
C1041      H1048   1.083       .  S
C1042      C1043   1.411       .  A
C1043      C1044   1.382       .  A
C1043      F1050   1.354       .  S
C1044      C1045   1.397       .  A
C1044      H1049   1.084       .  S
C1045      C1046   1.398       .  A
C1046      F1047   1.348       .  S
C1051      C1052   1.392       .  A
C1051      C1056   1.373       .  A
C1051      H1058   1.083       .  S
C1052      C1053   1.403       .  A
C1053      C1054   1.392       .  A
C1053      F1060   1.357       .  S
C1054      C1055   1.398       .  A
C1054      H1059   1.074       .  S
C1055      C1056   1.404       .  A
C1056      F1057   1.356       .  S
C1061      C1062   1.390       .  A
C1061      C1066   1.387       .  A
C1061      H1068   1.085       .  S
C1062      C1063   1.406       .  A
C1063      C1064   1.392       .  A
C1063      F1070   1.356       .  S
C1064      C1065   1.401       .  A
C1064      H1069   1.080       .  S
C1065      C1066   1.403       .  A
C1066      F1067   1.352       .  S
C1071      C1072   1.410   1_556  A
C1071      C1076   1.427       .  A
C1071      H1078   1.083       .  S
C1072      C1218   1.576   1_554  S
C1072      C1311   1.430       .  A
C1073      C1310   1.430       .  A
C1073      C1074   1.432       .  A
C1073      F1080   1.348       .  S
C1074      C1313   1.415       .  A
C1074      H1079   1.076       .  S
C1075      C1312   1.415       .  A
C1075      C1076   1.431   1_554  A
C1076      F1077   1.348       .  S
C1081      C1320   1.421   1_554  A
C1081      C1086   1.440       .  A
C1081      H1088   1.083       .  S
C1082      C1319   1.421       .  A
C1082      C1083   1.435       .  A
C1083      C1084   1.431       .  A
C1083      F1090   1.352       .  S
C1084      C1085   1.408       .  A
C1084      H1089   1.079       .  S
C1085      C1324   1.428       .  A
C1086      C1323   1.428       .  A
C1086      F1087   1.349       .  S
C1091      C1568   1.433       .  A
C1091      C1096   1.438       .  A
C1091      H1098   1.082       .  S
C1092      C1567   1.433       .  A
C1092      C1093   1.433       .  A
C1093      C1094   1.457       .  A
C1093      F1100   1.354       .  S
C1094      C1095   1.438       .  A
C1094      H1099   1.080       .  S
C1095      C1572   1.413       .  A
C1096      C1571   1.413       .  A
C1096      F1097   1.341       .  S
C1101      C1578   1.417       .  A
C1101      C1106   1.443       .  A
C1101      H1108   1.078       .  S
C1102      C1577   1.417       .  A
C1102      C1103   1.430       .  A
C1103      C1104   1.437       .  A
C1103      F1110   1.352       .  S
C1104      C1105   1.426   1_554  A
C1104      H1109   1.081       .  S
C1105      C1455   1.623       .  S
C1105      C1582   1.428   1_556  A
C1106      C1581   1.428   1_554  A
C1106      F1107   1.338   1_554  S
C1111      C1112   1.420       .  A
C1111      C1116   1.431       .  A
C1111      H1118   1.083       .  S
C1113      C1114   1.428       .  A
C1113      F1120   1.340       .  S
C1114      H1119   1.083       .  S
C1115      C1116   1.422       .  A
C1116      F1117   1.355       .  S
C1121      C1126   1.423       .  A
C1121      H1128   1.079       .  S
C1122      C1123   1.416   1_455  A
C1123      C1124   1.434       .  A
C1123      F1130   1.356       .  S
C1124      C1125   1.428       .  A
C1124      H1129   1.082       .  S
C1126      F1127   1.344       .  S
C1131      C1136   1.392       .  A
C1131      H1138   1.085       .  S
C1132      C1133   1.394       .  A
C1133      C1134   1.389       .  A
C1133      F1140   1.351       .  S
C1134      C1135   1.409       .  A
C1134      H1139   1.073       .  S
C1135      C1219   1.480       .  S
C1136      F1137   1.351       .  S
C1141      C1146   1.404       .  A
C1141      H1148   1.076       .  S
C1142      C1143   1.383       .  A
C1143      C1144   1.363       .  A
C1143      F1150   1.344       .  S
C1144      C1145   1.388       .  A
C1144      H1387   1.078       .  S
C1146      F1147   1.353       .  S
H1149      C1382   1.078       .  S
C1151      C1152   1.406       .  A
C1151      C1156   1.399   1_556  A
C1151      H1158   1.082       .  S
C1152      C1867   1.410   1_545  A
C1153      C1866   1.410       .  A
C1153      C1154   1.396       .  A
C1153      F1160   1.356       .  S
C1154      C1869   1.409       .  A
C1154      H1159   1.083       .  S
C1155      C1210   1.478       .  S
C1155      C1868   1.409   1_554  A
C1155      C1156   1.405   1_565  A
C1156      F1157   1.357       .  S
C1161      C1638   1.409   1_545  A
C1161      C1166   1.386       .  A
C1161      H1168   1.080       .  S
C1162      C1212   1.468       .  S
C1162      C1637   1.409       .  A
C1162      C1401   1.405       .  A
C1163      C1400   1.405       .  A
C1163      C1164   1.398       .  A
C1163      F1170   1.357       .  S
C1164      C1403   1.410       .  A
C1164      H1169   1.082       .  S
C1165      C1454   1.471       .  S
C1165      C1402   1.410       .  A
C1165      C1642   1.393       .  A
C1166      C1641   1.393       .  A
C1166      F1167   1.355       .  S
C1171      C1176   1.392       .  A
C1171      H1178   1.084       .  S
C1172      C1649   1.405   1_455  A
C1173      C1648   1.405   1_655  A
C1173      C1174   1.395       .  A
C1173      F1180   1.357       .  S
C1174      C1651   1.408   1_655  A
C1174      H1179   1.082       .  S
C1175      C1650   1.408   1_455  A
C1176      F1177   1.346       .  S
C1181      C1186   1.395       .  A
C1181      H1188   1.084       .  S
C1182      C1183   1.395       .  A
C1183      C1184   1.396       .  A
C1183      F1190   1.356       .  S
C1184      C1185   1.397       .  A
C1184      H1189   1.078       .  S
C1186      F1187   1.358       .  S
Zn1191     O1196   2.037       .  S
Zn1191     O1200   1.940   1_556  S
Zn1191     O1207   1.951       .  S
Zn1192     O1197   1.954   1_565  S
Zn1192     O1199   1.984   1_565  S
Zn1192     O1203   1.957       .  S
Zn1192     O1195   1.903       .  S
Zn1193     O1198   2.044       .  S
Zn1193     O1201   1.951   1_655  S
Zn1193     O1204   1.969       .  S
Zn1194     O1202   2.021       .  S
Zn1194     O1205   2.027       .  S
Zn1194     O1206   2.047   1_554  S
Zn1194     O1433   1.963       .  S
O1195     Zn1432   1.963       .  S
O1196      C1208   1.280   1_565  A
O1197      C1685   1.262       .  A
O1198      C1448   1.267       .  A
O1200      C1210   1.254       .  A
O1203      C1688   1.254       .  A
O1207      C1213   1.250   1_655  A
C1208      C1380   1.441       .  S
C1209      O1673   1.262       .  A
C1209      C1420   1.444       .  S
C1210      O1436   1.267       .  A
C1211      C1370   1.459       .  S
C1212      O1679   1.254       .  A
C1213      C1413   1.470       .  S
C1214      C1353   1.572       .  S
C1214      C1423   1.452       .  S
C1214      C1691   1.388       .  D
C1215      C1690   1.388   1_545  D
C1216      C1330   1.615       .  S
C1216      C1879   1.471       .  S
C1217      C1819   1.623       .  S
C1217      C1390   1.485       .  S
C1218      C1383   1.453       .  S
C1219      C1323   1.587       .  S
C1220      C1300   1.464       .  S
C1220      C1363   1.593       .  S
C1221      C1290   1.440       .  S
C1221      C1350   1.580       .  S
Zn1222     O1227   2.035       .  S
Zn1222     O1231   1.989       .  S
Zn1222     O1238   2.053       .  S
Zn1222     O1226   1.943       .  S
Zn1223     O1228   2.109       .  S
Zn1223     O1230   2.059       .  S
Zn1223     O1234   2.008       .  S
Zn1223     O1226   2.031       .  S
Zn1224     O1229   1.936       .  S
Zn1224     O1232   2.002       .  S
Zn1224     O1235   1.970       .  S
Zn1224     O1226   1.933       .  S
Zn1225     O1233   2.049       .  S
Zn1225     O1236   1.975       .  S
Zn1225     O1237   1.986       .  S
Zn1225     O1226   2.066       .  S
O1227      C1239   1.269       .  A
O1228      C1240   1.270       .  A
O1229      C1241   1.256       .  A
O1230      C1239   1.270       .  A
O1231      C1241   1.268       .  A
O1232      C1240   1.277       .  A
O1233      C1242   1.256       .  A
O1234      C1243   1.262       .  A
O1235      C1242   1.244       .  A
O1236      C1243   1.270       .  A
O1237      C1244   1.274       .  A
O1238      C1244   1.278       .  A
C1239      C1303   1.467       .  S
C1240      C1260   1.473       .  S
C1241      C1270   1.460       .  S
C1242      C1293   1.450       .  S
C1243      C1280   1.474       .  S
C1244      C1250   1.455       .  S
C1245      C1283   1.477       .  S
C1245      C1320   1.588       .  S
C1246      C1273   1.518       .  S
C1246      C1313   1.590       .  S
C1247      C1263   1.468       .  S
C1247      C1340   1.595       .  S
C1247      C1724   1.425       .  D
C1248      C1253   1.463       .  S
C1248      C1333   1.622       .  S
C1248      C1723   1.425       .  D
C1249      C1250   1.403       .  A
C1249      C1254   1.388       .  A
C1249      H1256   1.082       .  S
C1250      C1251   1.404       .  A
C1251      C1252   1.397       .  A
C1251      F1258   1.358       .  S
C1252      C1253   1.403       .  A
C1252      H1257   1.084       .  S
C1253      C1254   1.396       .  A
C1254      F1255   1.358       .  S
C1259      C1260   1.390       .  A
C1259      C1264   1.369       .  A
C1259      H1266   1.065       .  S
C1260      C1261   1.408       .  A
C1261      C1262   1.411       .  A
C1261      F1268   1.357       .  S
C1262      C1263   1.410       .  A
C1262      H1267   1.082       .  S
C1263      C1264   1.393       .  A
C1264      F1265   1.360       .  S
C1269      C1270   1.387       .  A
C1269      C1274   1.375       .  A
C1269      H1276   1.084       .  S
C1270      C1271   1.406       .  A
C1271      C1272   1.394       .  A
C1271      F1278   1.357       .  S
C1272      C1273   1.410       .  A
C1272      H1277   1.069       .  S
C1273      C1274   1.426       .  A
C1274      F1275   1.354       .  S
C1279      C1280   1.402       .  A
C1279      C1284   1.393       .  A
C1279      H1286   1.083       .  S
C1280      C1281   1.411       .  A
C1281      C1282   1.382       .  A
C1281      F1288   1.354       .  S
C1282      C1283   1.397       .  A
C1282      H1287   1.084       .  S
C1283      C1284   1.398       .  A
C1284      F1285   1.348       .  S
C1289      C1290   1.392       .  A
C1289      C1294   1.373       .  A
C1289      H1296   1.083       .  S
C1290      C1291   1.403       .  A
C1291      C1292   1.392       .  A
C1291      F1298   1.357       .  S
C1292      C1293   1.398       .  A
C1292      H1297   1.074       .  S
C1293      C1294   1.404       .  A
C1294      F1295   1.356       .  S
C1299      C1300   1.390       .  A
C1299      C1304   1.387       .  A
C1299      H1306   1.085       .  S
C1300      C1301   1.406       .  A
C1301      C1302   1.392       .  A
C1301      F1308   1.356       .  S
C1302      C1303   1.401       .  A
C1302      H1307   1.080       .  S
C1303      C1304   1.403       .  A
C1304      F1305   1.352       .  S
C1309      C1310   1.410       .  A
C1309      C1314   1.427       .  A
C1309      H1316   1.083       .  S
C1311      C1312   1.432       .  A
C1311      F1318   1.348       .  S
C1312      H1317   1.076       .  S
C1313      C1314   1.431       .  A
C1314      F1315   1.348       .  S
C1319      C1324   1.440       .  A
C1319      H1326   1.083       .  S
C1320      C1321   1.435       .  A
C1321      C1322   1.431       .  A
C1321      F1328   1.352       .  S
C1322      C1323   1.408   1_556  A
C1322      H1327   1.079       .  S
C1324      F1325   1.349       .  S
C1329      C1806   1.433       .  A
C1329      C1334   1.438       .  A
C1329      H1336   1.082       .  S
C1330      C1805   1.433       .  A
C1330      C1331   1.433       .  A
C1331      C1332   1.457       .  A
C1331      F1338   1.354       .  S
C1332      C1333   1.438       .  A
C1332      H1337   1.080       .  S
C1333      C1810   1.413       .  A
C1334      C1809   1.413       .  A
C1334      F1335   1.341       .  S
C1339      C1816   1.417       .  A
C1339      C1344   1.443       .  A
C1339      H1346   1.078       .  S
C1340      C1815   1.417       .  A
C1340      C1341   1.430       .  A
C1341      C1342   1.437       .  A
C1341      F1348   1.352       .  S
C1342      C1343   1.426       .  A
C1342      H1347   1.081       .  S
C1343      C1693   1.623       .  S
C1343      C1820   1.428       .  A
C1344      C1819   1.428       .  A
C1344      F1345   1.338       .  S
C1349      C1350   1.420       .  A
C1349      C1354   1.431       .  A
C1349      H1356   1.083       .  S
C1351      C1352   1.428       .  A
C1351      F1358   1.340       .  S
C1352      H1357   1.083       .  S
C1353      C1354   1.422       .  A
C1354      F1355   1.355       .  S
C1359      C1364   1.423       .  A
C1359      H1366   1.079       .  S
C1360      C1361   1.416   1_455  A
C1361      C1362   1.434       .  A
C1361      F1368   1.356       .  S
C1362      C1363   1.428       .  A
C1362      H1367   1.082       .  S
C1364      F1365   1.344       .  S
C1369      C1374   1.392       .  A
C1369      H1376   1.085       .  S
C1370      C1371   1.394       .  A
C1371      C1372   1.389       .  A
C1371      F1378   1.351       .  S
C1372      C1373   1.409       .  A
C1372      H1377   1.073       .  S
C1374      F1375   1.351       .  S
C1379      C1384   1.404       .  A
C1379      H1386   1.076       .  S
C1380      C1381   1.383   1_556  A
C1381      C1382   1.363       .  A
C1381      F1388   1.344       .  S
C1382      C1383   1.388   1_554  A
C1384      F1385   1.353       .  S
C1389      C1390   1.406       .  A
C1389      C1394   1.399       .  A
C1389      H1396   1.082       .  S
C1390      C1629   1.410   1_545  A
C1391      C1628   1.410       .  A
C1391      C1392   1.396       .  A
C1391      F1398   1.356       .  S
C1392      C1631   1.409   1_556  A
C1392      H1397   1.083       .  S
C1393      C1630   1.409       .  A
C1393      C1394   1.405   1_565  A
C1394      F1395   1.357       .  S
C1399      C1876   1.409   1_545  A
C1399      C1404   1.386       .  A
C1399      H1406   1.080       .  S
C1400      C1875   1.409       .  A
C1401      C1402   1.398       .  A
C1401      F1408   1.357       .  S
C1402      H1407   1.082       .  S
C1403      C1692   1.471       .  S
C1403      C1880   1.393       .  A
C1404      C1879   1.393       .  A
C1404      F1405   1.355       .  S
C1409      C1414   1.392       .  A
C1409      H1416   1.084       .  S
C1410      C1887   1.405   1_455  A
C1411      C1886   1.405   1_655  A
C1411      C1412   1.395       .  A
C1411      F1418   1.357       .  S
C1412      C1889   1.408   1_655  A
C1412      H1417   1.082       .  S
C1413      C1888   1.408   1_455  A
C1414      F1415   1.346       .  S
C1419      C1424   1.395       .  A
C1419      H1426   1.084       .  S
C1420      C1421   1.395       .  A
C1421      C1422   1.396       .  A
C1421      F1428   1.356       .  S
C1422      C1423   1.397       .  A
C1422      H1427   1.078       .  S
C1424      F1425   1.358       .  S
Zn1429     O1434   2.037       .  S
Zn1429     O1438   1.940       .  S
Zn1429     O1445   1.951       .  S
Zn1430     O1435   1.954       .  S
Zn1430     O1437   1.985   1_554  S
Zn1430     O1441   1.957       .  S
Zn1430     O1433   1.903       .  S
Zn1431     O1436   2.044       .  S
Zn1431     O1439   1.951   1_655  S
Zn1431     O1442   1.969       .  S
Zn1432     O1440   2.021       .  S
Zn1432     O1443   2.027       .  S
Zn1432     O1444   2.047       .  S
O1434      C1446   1.280       .  A
O1438      C1448   1.254       .  A
O1440      C1687   1.287       .  A
O1443      C1688   1.266       .  A
O1445      C1451   1.250   1_655  A
C1446      C1618   1.441       .  S
C1447      C1658   1.444       .  S
C1448      C1869   1.478       .  S
C1449      O1678   1.287       .  A
C1449      C1608   1.459       .  S
C1450      O1681   1.266       .  A
C1450      C1876   1.468   1_554  S
C1451      C1651   1.470       .  S
C1452      C1591   1.572       .  S
C1452      C1661   1.452   1_565  S
C1454      C1568   1.615       .  S
C1454      C1693   1.433       .  D
C1455      C1628   1.485       .  S
C1455      C1692   1.433       .  D
C1456      C1786   1.576       .  S
C1456      C1621   1.453       .  S
C1457      C1561   1.587       .  S
C1457      C1849   1.480       .  S
C1458      C1538   1.464       .  S
C1458      C1601   1.593       .  S
C1459      C1528   1.440       .  S
C1459      C1588   1.580       .  S
Zn1460     O1465   2.035       .  S
Zn1460     O1469   1.989       .  S
Zn1460     O1476   2.053       .  S
Zn1460     O1464   1.943       .  S
Zn1461     O1466   2.109       .  S
Zn1461     O1468   2.059       .  S
Zn1461     O1472   2.007       .  S
Zn1461     O1464   2.031       .  S
Zn1462     O1467   1.936       .  S
Zn1462     O1470   2.002       .  S
Zn1462     O1473   1.970       .  S
Zn1462     O1464   1.934       .  S
Zn1463     O1471   2.049       .  S
Zn1463     O1474   1.975       .  S
Zn1463     O1475   1.986       .  S
Zn1463     O1464   2.066       .  S
O1465      C1477   1.269       .  A
O1466      C1478   1.270       .  A
O1467      C1479   1.256       .  A
O1468      C1477   1.270       .  A
O1469      C1479   1.268       .  A
O1470      C1478   1.277       .  A
O1471      C1480   1.256       .  A
O1472      C1481   1.262       .  A
O1473      C1480   1.244       .  A
O1474      C1481   1.270       .  A
O1475      C1482   1.274       .  A
O1476      C1482   1.277       .  A
C1477      C1541   1.467       .  S
C1478      C1498   1.473       .  S
C1479      C1508   1.459       .  S
C1480      C1531   1.450       .  S
C1481      C1518   1.474       .  S
C1482      C1488   1.455       .  S
C1483      C1521   1.477       .  S
C1483      C1558   1.588       .  S
C1483      C1722   1.433       .  D
C1484      C1511   1.518       .  S
C1484      C1551   1.590       .  S
C1484      C1721   1.433   1_554  D
C1485      C1501   1.468   1_545  S
C1485      C1578   1.595       .  S
C1486      C1491   1.463       .  S
C1486      C1571   1.622       .  S
C1487      C1488   1.403       .  A
C1487      C1492   1.388       .  A
C1487      H1494   1.082       .  S
C1488      C1489   1.404       .  A
C1489      C1490   1.397       .  A
C1489      F1496   1.358       .  S
C1490      C1491   1.403       .  A
C1490      H1495   1.084       .  S
C1491      C1492   1.396       .  A
C1492      F1493   1.358       .  S
C1497      C1498   1.390       .  A
C1497      C1502   1.369       .  A
C1497      H1504   1.060       .  S
C1498      C1499   1.408       .  A
C1499      C1500   1.411       .  A
C1499      F1506   1.357       .  S
C1500      C1501   1.410       .  A
C1500      H1505   1.081       .  S
C1501      C1502   1.392       .  A
C1502      F1503   1.360       .  S
C1507      C1508   1.387       .  A
C1507      C1512   1.375       .  A
C1507      H1514   1.084       .  S
C1508      C1509   1.406       .  A
C1509      C1510   1.394       .  A
C1509      F1516   1.357       .  S
C1510      C1511   1.410       .  A
C1510      H1515   1.069       .  S
C1511      C1512   1.426       .  A
C1512      F1513   1.354       .  S
C1517      C1518   1.402       .  A
C1517      C1522   1.393       .  A
C1517      H1524   1.083       .  S
C1518      C1519   1.411       .  A
C1519      C1520   1.382       .  A
C1519      F1526   1.354       .  S
C1520      C1521   1.397       .  A
C1520      H1525   1.084       .  S
C1521      C1522   1.398       .  A
C1522      F1523   1.348       .  S
C1527      C1528   1.392       .  A
C1527      C1532   1.373       .  A
C1527      H1534   1.083       .  S
C1528      C1529   1.403       .  A
C1529      C1530   1.392       .  A
C1529      F1536   1.357       .  S
C1530      C1531   1.398       .  A
C1530      H1535   1.074       .  S
C1531      C1532   1.404       .  A
C1532      F1533   1.356       .  S
C1537      C1538   1.390       .  A
C1537      C1542   1.387       .  A
C1537      H1544   1.085       .  S
C1538      C1539   1.406       .  A
C1539      C1540   1.392       .  A
C1539      F1546   1.356       .  S
C1540      C1541   1.401       .  A
C1540      H1545   1.080       .  S
C1541      C1542   1.403       .  A
C1542      F1543   1.352       .  S
C1547      C1548   1.410   1_556  A
C1547      C1552   1.427       .  A
C1547      H1554   1.083       .  S
C1548      C1694   1.576   1_554  S
C1548      C1787   1.430       .  A
C1549      C1786   1.430       .  A
C1549      C1550   1.432       .  A
C1549      F1556   1.348       .  S
C1550      C1789   1.415       .  A
C1550      H1555   1.076       .  S
C1551      C1788   1.415       .  A
C1551      C1552   1.431   1_554  A
C1552      F1553   1.348       .  S
C1557      C1796   1.421   1_554  A
C1557      C1562   1.440       .  A
C1557      H1564   1.083       .  S
C1558      C1795   1.421       .  A
C1558      C1559   1.435       .  A
C1559      C1560   1.431       .  A
C1559      F1566   1.352       .  S
C1560      C1561   1.408       .  A
C1560      H1565   1.079       .  S
C1561      C1800   1.428       .  A
C1562      C1799   1.428       .  A
C1562      F1563   1.349       .  S
C1567      C1572   1.438       .  A
C1567      H1574   1.082       .  S
C1568      C1569   1.433       .  A
C1569      C1570   1.457       .  A
C1569      F1576   1.354       .  S
C1570      C1571   1.438       .  A
C1570      H1575   1.080       .  S
C1572      F1573   1.341       .  S
C1577      C1582   1.443       .  A
C1577      H1584   1.078       .  S
C1578      C1579   1.430   1_545  A
C1579      C1580   1.437       .  A
C1579      F1586   1.352       .  S
C1580      C1581   1.426   1_564  A
C1580      H1585   1.081       .  S
C1582      F1583   1.338   1_554  S
C1587      C1588   1.420       .  A
C1587      C1592   1.431       .  A
C1587      H1594   1.083       .  S
C1589      C1590   1.428       .  A
C1589      F1596   1.340       .  S
C1590      H1595   1.083       .  S
C1591      C1592   1.422       .  A
C1592      F1593   1.355       .  S
C1597      C1602   1.423       .  A
C1597      H1604   1.079       .  S
C1598      C1599   1.416   1_455  A
C1599      C1600   1.434       .  A
C1599      F1606   1.356       .  S
C1600      C1601   1.428       .  A
C1600      H1605   1.082       .  S
C1602      F1603   1.344       .  S
C1607      C1612   1.392       .  A
C1607      H1614   1.085       .  S
C1608      C1609   1.394       .  A
C1609      C1610   1.389       .  A
C1609      F1616   1.351       .  S
C1610      C1611   1.409       .  A
C1610      H1615   1.073       .  S
C1611      C1695   1.480       .  S
C1612      F1613   1.351       .  S
C1617      C1622   1.404       .  A
C1617      H1624   1.076       .  S
C1618      C1619   1.383       .  A
C1619      C1620   1.363       .  A
C1619      F1626   1.344       .  S
C1620      C1621   1.388       .  A
C1620      H1863   1.078       .  S
C1622      F1623   1.353       .  S
H1625      C1858   1.078       .  S
C1627      C1628   1.406       .  A
C1627      C1632   1.399   1_556  A
C1627      H1634   1.082       .  S
C1629      C1630   1.396       .  A
C1629      F1636   1.356       .  S
C1630      H1635   1.083       .  S
C1631      C1686   1.478       .  S
C1631      C1632   1.405       .  A
C1632      F1633   1.357       .  S
C1637      C1642   1.386       .  A
C1637      H1644   1.080       .  S
C1638      C1688   1.468       .  S
C1638      C1877   1.405       .  A
C1639      C1876   1.405       .  A
C1639      C1640   1.398       .  A
C1639      F1646   1.357       .  S
C1640      C1879   1.410   1_565  A
C1640      H1645   1.082       .  S
C1641      C1878   1.410   1_545  A
C1642      F1643   1.355       .  S
C1647      C1652   1.392       .  A
C1647      H1654   1.084       .  S
C1649      C1650   1.395       .  A
C1649      F1656   1.357       .  S
C1650      H1655   1.082       .  S
C1652      F1653   1.346       .  S
C1657      C1662   1.395       .  A
C1657      H1664   1.084       .  S
C1658      C1659   1.395       .  A
C1659      C1660   1.396       .  A
C1659      F1666   1.356       .  S
C1660      C1661   1.397       .  A
C1660      H1665   1.078       .  S
C1662      F1663   1.358       .  S
Zn1667     O1672   2.037       .  S
Zn1667     O1676   1.940   1_556  S
Zn1667     O1683   1.951       .  S
Zn1668     O1673   1.954       .  S
Zn1668     O1675   1.984       .  S
Zn1668     O1679   1.957       .  S
Zn1668     O1671   1.903       .  S
Zn1669     O1674   2.044       .  S
Zn1669     O1677   1.951   1_655  S
Zn1669     O1680   1.969       .  S
Zn1670     O1678   2.021       .  S
Zn1670     O1681   2.027       .  S
Zn1670     O1682   2.047   1_554  S
O1672      C1684   1.280       .  A
O1676      C1686   1.254       .  A
O1683      C1689   1.250   1_655  A
C1684      C1856   1.441       .  S
C1685      C1896   1.444       .  S
C1687      C1846   1.459       .  S
C1689      C1889   1.470       .  S
C1690      C1829   1.572       .  S
C1690      C1899   1.452   1_565  S
C1692      C1806   1.615       .  S
C1693      C1866   1.485       .  S
C1694      C1859   1.452       .  S
C1695      C1799   1.587       .  S
C1696      C1776   1.464       .  S
C1696      C1839   1.593       .  S
C1697      C1766   1.440       .  S
C1697      C1826   1.580       .  S
Zn1698     O1703   2.035       .  S
Zn1698     O1707   1.989       .  S
Zn1698     O1714   2.053       .  S
Zn1698     O1702   1.943       .  S
Zn1699     O1704   2.109       .  S
Zn1699     O1706   2.059       .  S
Zn1699     O1710   2.008       .  S
Zn1699     O1702   2.031       .  S
Zn1700     O1705   1.936       .  S
Zn1700     O1708   2.002       .  S
Zn1700     O1711   1.970       .  S
Zn1700     O1702   1.933       .  S
Zn1701     O1709   2.049       .  S
Zn1701     O1712   1.975       .  S
Zn1701     O1713   1.986       .  S
Zn1701     O1702   2.066       .  S
O1703      C1715   1.269       .  A
O1704      C1716   1.270       .  A
O1705      C1717   1.256       .  A
O1706      C1715   1.270       .  A
O1707      C1717   1.268       .  A
O1708      C1716   1.277       .  A
O1709      C1718   1.256       .  A
O1710      C1719   1.262       .  A
O1711      C1718   1.244       .  A
O1712      C1719   1.270       .  A
O1713      C1720   1.274       .  A
O1714      C1720   1.277       .  A
C1715      C1779   1.467       .  S
C1716      C1736   1.473       .  S
C1717      C1746   1.460       .  S
C1718      C1769   1.450       .  S
C1719      C1756   1.474       .  S
C1720      C1726   1.455       .  S
C1721      C1759   1.477       .  S
C1721      C1796   1.588       .  S
C1722      C1749   1.518       .  S
C1722      C1789   1.590       .  S
C1723      C1739   1.468   1_545  S
C1723      C1816   1.595       .  S
C1724      C1729   1.463       .  S
C1724      C1809   1.621       .  S
C1725      C1726   1.403       .  A
C1725      C1730   1.388       .  A
C1725      H1732   1.082       .  S
C1726      C1727   1.404       .  A
C1727      C1728   1.397       .  A
C1727      F1734   1.358       .  S
C1728      C1729   1.403       .  A
C1728      H1733   1.084       .  S
C1729      C1730   1.396       .  A
C1730      F1731   1.358       .  S
C1735      C1736   1.390       .  A
C1735      C1740   1.369       .  A
C1735      H1742   1.062       .  S
C1736      C1737   1.408       .  A
C1737      C1738   1.411       .  A
C1737      F1744   1.357       .  S
C1738      C1739   1.410       .  A
C1738      H1743   1.082       .  S
C1739      C1740   1.392       .  A
C1740      F1741   1.360       .  S
C1745      C1746   1.387       .  A
C1745      C1750   1.375       .  A
C1745      H1752   1.084       .  S
C1746      C1747   1.406       .  A
C1747      C1748   1.394       .  A
C1747      F1754   1.357       .  S
C1748      C1749   1.410       .  A
C1748      H1753   1.069       .  S
C1749      C1750   1.426       .  A
C1750      F1751   1.354       .  S
C1755      C1756   1.402       .  A
C1755      C1760   1.393       .  A
C1755      H1762   1.083       .  S
C1756      C1757   1.411       .  A
C1757      C1758   1.382       .  A
C1757      F1764   1.354       .  S
C1758      C1759   1.397       .  A
C1758      H1763   1.084       .  S
C1759      C1760   1.398       .  A
C1760      F1761   1.348       .  S
C1765      C1766   1.392       .  A
C1765      C1770   1.373       .  A
C1765      H1772   1.083       .  S
C1766      C1767   1.403       .  A
C1767      C1768   1.392       .  A
C1767      F1774   1.357       .  S
C1768      C1769   1.398       .  A
C1768      H1773   1.074       .  S
C1769      C1770   1.404       .  A
C1770      F1771   1.356       .  S
C1775      C1776   1.390       .  A
C1775      C1780   1.387       .  A
C1775      H1782   1.085       .  S
C1776      C1777   1.406       .  A
C1777      C1778   1.392       .  A
C1777      F1784   1.356       .  S
C1778      C1779   1.401       .  A
C1778      H1783   1.080       .  S
C1779      C1780   1.403       .  A
C1780      F1781   1.352       .  S
C1785      C1786   1.410       .  A
C1785      C1790   1.427       .  A
C1785      H1792   1.083       .  S
C1787      C1788   1.432       .  A
C1787      F1794   1.348       .  S
C1788      H1793   1.076       .  S
C1789      C1790   1.431       .  A
C1790      F1791   1.348       .  S
C1795      C1800   1.440       .  A
C1795      H1802   1.083       .  S
C1796      C1797   1.435       .  A
C1797      C1798   1.431       .  A
C1797      F1804   1.352       .  S
C1798      C1799   1.408   1_556  A
C1798      H1803   1.079       .  S
C1800      F1801   1.349       .  S
C1805      C1810   1.438       .  A
C1805      H1812   1.082       .  S
C1806      C1807   1.433       .  A
C1807      C1808   1.457       .  A
C1807      F1814   1.354       .  S
C1808      C1809   1.438       .  A
C1808      H1813   1.080       .  S
C1810      F1811   1.341       .  S
C1815      C1820   1.443       .  A
C1815      H1822   1.078       .  S
C1816      C1817   1.430   1_545  A
C1817      C1818   1.437       .  A
C1817      F1824   1.352       .  S
C1818      C1819   1.426   1_565  A
C1818      H1823   1.081       .  S
C1820      F1821   1.338       .  S
C1825      C1826   1.420       .  A
C1825      C1830   1.431       .  A
C1825      H1832   1.083       .  S
C1827      C1828   1.428       .  A
C1827      F1834   1.340       .  S
C1828      H1833   1.083       .  S
C1829      C1830   1.422       .  A
C1830      F1831   1.355       .  S
C1835      C1840   1.423       .  A
C1835      H1842   1.079       .  S
C1836      C1837   1.416   1_455  A
C1837      C1838   1.434       .  A
C1837      F1844   1.356       .  S
C1838      C1839   1.428       .  A
C1838      H1843   1.082       .  S
C1840      F1841   1.344       .  S
C1845      C1850   1.392       .  A
C1845      H1852   1.085       .  S
C1846      C1847   1.394       .  A
C1847      C1848   1.389       .  A
C1847      F1854   1.351       .  S
C1848      C1849   1.409       .  A
C1848      H1853   1.073       .  S
C1850      F1851   1.351       .  S
C1855      C1860   1.404       .  A
C1855      H1862   1.076       .  S
C1856      C1857   1.383   1_556  A
C1857      C1858   1.363       .  A
C1857      F1864   1.344       .  S
C1858      C1859   1.388   1_554  A
C1860      F1861   1.353       .  S
C1865      C1866   1.406       .  A
C1865      C1870   1.399       .  A
C1865      H1872   1.082       .  S
C1867      C1868   1.396       .  A
C1867      F1874   1.356       .  S
C1868      H1873   1.083       .  S
C1869      C1870   1.405       .  A
C1870      F1871   1.357       .  S
C1875      C1880   1.386       .  A
C1875      H1882   1.080       .  S
C1877      C1878   1.398       .  A
C1877      F1884   1.357       .  S
C1878      H1883   1.082       .  S
C1880      F1881   1.355       .  S
C1885      C1890   1.392       .  A
C1885      H1892   1.084       .  S
C1887      C1888   1.395       .  A
C1887      F1894   1.357       .  S
C1888      H1893   1.082       .  S
C1890      F1891   1.346       .  S
C1895      C1900   1.395       .  A
C1895      H1902   1.084       .  S
C1896      C1897   1.395       .  A
C1897      C1898   1.396       .  A
C1897      F1904   1.356       .  S
C1898      C1899   1.397       .  A
C1898      H1903   1.078       .  S
C1900      F1901   1.358       .  S
