geometry optimzed in LAMMPS
_audit_creation_date              2020-12-01 
_audit_creation_method            'lammps2cif' 
_symmetry_space_group_name_H-M    'P1' 
_symmetry_Int_Tables_number       1 
_symmetry_cell_setting            triclinic 
loop_ 
_symmetry_equiv_pos_as_xyz 
  x,y,z 
_cell_length_a                    42.39403336 
_cell_length_b                    42.43954106724075 
_cell_length_c                    42.58762940457383 
_cell_angle_alpha                 90.014913748789 
_cell_angle_beta                  90.13128385127467 
_cell_angle_gamma                 89.94273464266783 
loop_ 
_atom_site_label 
_atom_site_type_symbol 
_atom_site_fract_x 
_atom_site_fract_y 
_atom_site_fract_z 
_atom_site_charge 
N1          N  0.77727707  0.29365231  0.44783591    -0.27400
N2          N  0.79482465  0.31432813  0.43262155    -0.35200
C3          C  0.79077060  0.31008223  0.40151821     0.01000
C4          C  0.76955083  0.28556705  0.39674974     0.07000
C5          C  0.76194985  0.27554493  0.42683543    -0.06100
H6          H  0.80273707  0.32365857  0.38366370     0.07700
H7          H  0.74728566  0.25576352  0.43322087     0.08900
Cu8        Cu  0.82508764  0.34594635  0.45503477     0.44200
Cu9        Cu  0.77495670  0.29053778  0.49660769     0.42000
Cu10       Cu  0.82913259  0.33997680  0.53992993     0.43900
N11         N  0.85505959  0.37305943  0.48300129    -0.34800
N12         N  0.85653723  0.37074688  0.51394629    -0.29000
C13         C  0.87817416  0.39118306  0.52492696    -0.05100
C14         C  0.89105238  0.40703289  0.49967657     0.07100
C15         C  0.87588063  0.39497082  0.47347880     0.00900
H16         H  0.88418797  0.39411776  0.54945881     0.08600
H17         H  0.87974800  0.40156660  0.44925379     0.07600
N18         N  0.79698674  0.31007064  0.56107663    -0.36200
N19         N  0.77651890  0.29256464  0.54547456    -0.28400
C20         C  0.75825417  0.27714732  0.56624227    -0.03600
C21         C  0.76753054  0.28549686  0.59643602     0.05000
C22         C  0.79257380  0.30600637  0.59203701     0.03100
H23         H  0.73950290  0.26111928  0.55979184     0.08200
H24         H  0.80715459  0.31677303  0.60989183     0.07000
N25         N  0.51134713  0.78314962  0.32373411    -0.27400
N26         N  0.52668710  0.79986345  0.34497653    -0.35200
C27         C  0.55784007  0.79596343  0.34090369     0.01000
C28         C  0.56241541  0.77628986  0.31538561     0.07000
C29         C  0.53235280  0.76831106  0.30535896    -0.06100
H30         H  0.57567291  0.80655949  0.35568222     0.07700
H31         H  0.52616433  0.75324501  0.28580051     0.08900
Cu32       Cu  0.50466714  0.82894979  0.37686289     0.44200
Cu33       Cu  0.46270322  0.78211718  0.32033891     0.42000
Cu34       Cu  0.41924873  0.83475120  0.37153478     0.43900
N35         N  0.47799433  0.85976316  0.40313693    -0.34800
N36         N  0.44691759  0.86199420  0.40143037    -0.29000
C37         C  0.43726652  0.88484399  0.42109602    -0.05100
C38         C  0.46359054  0.89758762  0.43558307     0.07100
C39         C  0.48896286  0.88113552  0.42370115     0.00900
H40         H  0.41295065  0.89188114  0.42432529     0.08600
H41         H  0.51361514  0.88453258  0.42938253     0.07600
N42         N  0.39813143  0.80519068  0.33867414    -0.36200
N43         N  0.41407499  0.78594306  0.32015437    -0.28400
C44         C  0.39372320  0.76979975  0.30201719    -0.03600
C45         C  0.36342101  0.77953093  0.30918796     0.05000
C46         C  0.36715136  0.80179957  0.33273693     0.03100
H47         H  0.40056042  0.75171440  0.28548044     0.08200
H48         H  0.34865133  0.81454399  0.34476159     0.07000
N49         N  0.26562785  0.43241634  0.82982815    -0.27400
N50         N  0.28733204  0.41615786  0.84523170    -0.35200
C51         C  0.28349674  0.38537730  0.83899335     0.01000
C52         C  0.25797039  0.38202201  0.81901464     0.07000
C53         C  0.24723848  0.41232369  0.81358030    -0.06100
H54         H  0.29887301  0.36686310  0.84747459     0.07700
H55         H  0.22875758  0.41939355  0.79749201     0.08900
Cu56       Cu  0.32264828  0.43609585  0.87251518     0.44200
Cu57       Cu  0.26476075  0.48121000  0.82812484     0.42000
Cu58       Cu  0.32884658  0.52025923  0.86967423     0.43900
N59         N  0.35443440  0.46135052  0.89970153    -0.34800
N60         N  0.35655226  0.49240678  0.89882673    -0.29000
C61         C  0.37831007  0.50186251  0.91985620    -0.05100
C62         C  0.39045694  0.47545732  0.93464715     0.07100
C63         C  0.37485211  0.45017033  0.92123997     0.00900
H64         H  0.38462391  0.52617224  0.92421553     0.08600
H65         H  0.37781604  0.42550527  0.92696768     0.07600
N66         N  0.29689748  0.54330284  0.84065434    -0.36200
N67         N  0.27306637  0.52929407  0.82629008    -0.28400
C68         C  0.25657261  0.55098527  0.81012131    -0.03600
C69         C  0.27052117  0.58016870  0.81463293     0.05000
C70         C  0.29632376  0.57421068  0.83378938     0.03100
H71         H  0.23580597  0.54587729  0.79621732     0.08200
H72         H  0.31386496  0.59085544  0.84178055     0.07000
N73         N  0.15362556  0.28785259  0.04859906    -0.27400
N74         N  0.13667439  0.30906628  0.06376443    -0.35200
C75         C  0.14195271  0.30584269  0.09476631     0.01000
C76         C  0.16341820  0.28150730  0.09939862     0.07000
C77         C  0.16980835  0.27038614  0.06947174    -0.06100
H78         H  0.13111974  0.32035865  0.11263553     0.07700
H79         H  0.18464583  0.25069253  0.06310984     0.08900
Cu80       Cu  0.10682194  0.34099031  0.04136750     0.44200
Cu81       Cu  0.15524557  0.28441181  0.00018875     0.42000
Cu82       Cu  0.10387938  0.33724372  0.95653552     0.43900
N83         N  0.07794199  0.36955649  0.01382501    -0.34800
N84         N  0.07684585  0.36821821  0.98281443    -0.29000
C85         C  0.05566839  0.38939719  0.97223874    -0.05100
C86         C  0.04277360  0.40472535  0.99786015     0.07100
C87         C  0.05739651  0.39153756  0.02380529     0.00900
H88         H  0.04977133  0.39299562  0.94776668     0.08600
H89         H  0.05314581  0.39722542  0.04819856     0.07600
N90         N  0.13513238  0.30595527  0.93588045    -0.36200
N91         N  0.15437988  0.28723178  0.95172048    -0.28400
C92         C  0.17238387  0.27104339  0.93133885    -0.03600
C93         C  0.16396580  0.28003568  0.90128097     0.05000
C94         C  0.14011395  0.30192759  0.90500865     0.03100
H95         H  0.18990483  0.25369771  0.93792809     0.08200
H96         H  0.12753850  0.31428771  0.88661361     0.07000
N97         N  0.29457953  0.92619110  0.18886990    -0.27400
N98         N  0.31113464  0.90971393  0.16834160    -0.35200
C99         C  0.30643305  0.87884135  0.17399595     0.01000
C100        C  0.28631380  0.87590963  0.19952200     0.07000
C101        C  0.27919501  0.90645798  0.20815195    -0.06100
H102        H  0.31597105  0.85991530  0.15987310     0.07700
H103        H  0.26240869  0.91385917  0.22577756     0.08900
Cu104      Cu  0.33728299  0.93058692  0.13225969     0.44200
Cu105      Cu  0.28984889  0.97446355  0.18741976     0.42000
Cu106      Cu  0.33036289  0.01606439  0.12576792     0.43900
N107        N  0.36164061  0.95786067  0.09928767    -0.34800
N108        N  0.35921673  0.98888847  0.09717691    -0.29000
C109        C  0.37883980  0.99933596  0.07463507    -0.05100
C110        C  0.39437793  0.97370902  0.06185599     0.07100
C111        C  0.38281271  0.94780555  0.07796131     0.00900
H112        H  0.38183655  0.02383900  0.06830700     0.08600
H113        H  0.38978205  0.92347309  0.07485626     0.07600
N114        N  0.30065143  0.03777077  0.15786026    -0.36200
N115        N  0.28560852  0.02226597  0.18012396    -0.28400
C116        C  0.26838053  0.04262673  0.19703999    -0.03600
C117        C  0.27265277  0.07260713  0.18492018     0.05000
C118        C  0.29364748  0.06859313  0.16027659     0.03100
H119        H  0.25405151  0.03602372  0.21696339     0.08200
H120        H  0.30413873  0.08671857  0.14587993     0.07000
N121        N  0.78222541  0.66259261  0.45559555    -0.27400
N122        N  0.80179369  0.64404004  0.44014253    -0.35200
C123        C  0.79863896  0.64946358  0.40924866     0.01000
C124        C  0.77574883  0.67246891  0.40471619     0.07000
C125        C  0.76566656  0.67993373  0.43484757    -0.06100
H126        H  0.81180593  0.63704269  0.39138644     0.07700
H127        H  0.74682606  0.69574116  0.44141957     0.08900
Cu128      Cu  0.83048812  0.61058267  0.46127559     0.44200
Cu129      Cu  0.77943137  0.66331128  0.50416501     0.42000
Cu130      Cu  0.83140099  0.60872852  0.54564103     0.43900
N131        N  0.85790119  0.57951846  0.48714964    -0.34800
N132        N  0.85841124  0.57911632  0.51817577    -0.29000
C133        C  0.87927183  0.55735823  0.52795941    -0.05100
C134        C  0.89252027  0.54342470  0.50179435     0.07100
C135        C  0.87839869  0.55791714  0.47630203     0.00900
H136        H  0.88463721  0.55235014  0.55230539     0.08600
H137        H  0.88300703  0.55346829  0.45171905     0.07600
N138        N  0.80216962  0.64080894  0.56756914    -0.36200
N139        N  0.78353861  0.66082312  0.55258110    -0.28400
C140        C  0.76762607  0.67806358  0.57376333    -0.03600
C141        C  0.77671821  0.66838969  0.60340266     0.05000
C142        C  0.79840995  0.64458274  0.59865017     0.03100
H143        H  0.75003579  0.69562473  0.56798402     0.08200
H144        H  0.81034835  0.63080129  0.61645193     0.07000
N145        N  0.14228872  0.66248308  0.04773812    -0.27400
N146        N  0.12075753  0.64649678  0.06352178    -0.35200
C147        C  0.12377973  0.65298241  0.09431183     0.01000
C148        C  0.14829675  0.67418063  0.09816499     0.07000
C149        C  0.15969969  0.67938990  0.06815007    -0.06100
H150        H  0.10974407  0.64229834  0.11261587     0.07700
H151        H  0.17919793  0.69443958  0.06162516     0.08900
Cu152      Cu  0.08902204  0.61549551  0.04274862     0.44200
Cu153      Cu  0.14638745  0.66132018  0.99902454     0.42000
Cu154      Cu  0.08481925  0.61887152  0.95801532     0.43900
N155        N  0.06183081  0.58492888  0.01582837    -0.34800
N156        N  0.06016849  0.58640363  0.98485030    -0.29000
C157        C  0.04197178  0.56268505  0.97430145    -0.05100
C158        C  0.03171683  0.54541752  0.99983955     0.07100
C159        C  0.04462430  0.56024861  0.02581583     0.00900
H160        H  0.03688070  0.55816143  0.94980590     0.08600
H161        H  0.04201103  0.55341342  0.05014509     0.07600
N162        N  0.11821765  0.64650764  0.93555314    -0.36200
N163        N  0.14169022  0.66065542  0.95034094    -0.28400
C164        C  0.16033123  0.67469152  0.92899331    -0.03600
C165        C  0.14815507  0.66906493  0.89921542     0.05000
C166        C  0.12110305  0.65147350  0.90449606     0.03100
H167        H  0.18133373  0.68796257  0.93476079     0.08200
H168        H  0.10433879  0.64317191  0.88724290     0.07000
O169        O  0.00183717  0.50550107  0.02527178    -0.73000
O170        O  0.93995967  0.43382498  0.02409201    -0.74000
O171        O  0.00669177  0.43843820  0.02407380    -0.62600
O172        O  0.93533653  0.50057983  0.02515798    -0.71000
O173        O  0.93498290  0.50149749  0.97301918    -0.70600
O174        O  0.00650599  0.43900256  0.97194420    -0.61800
O175        O  0.93954272  0.43466877  0.97196058    -0.74300
O176        O  0.00156240  0.50640349  0.97314479    -0.73100
Cu177      Cu  0.97102463  0.46951431  0.02643777     1.04600
Cu178      Cu  0.97072509  0.47038656  0.97066702     1.04300
C179        C  0.01090077  0.51769079  0.99940024     0.93200
C180        C  0.92982693  0.42312830  0.99791144     0.92300
C181        C  0.01759624  0.42861914  0.99790131     0.84500
C182        C  0.92404558  0.51095991  0.99931462     0.90700
N183        N  0.63478067  0.91851182  0.18398909    -0.27400
N184        N  0.61731481  0.90348982  0.16304235    -0.35200
C185        C  0.62082692  0.87221881  0.16699562     0.01000
C186        C  0.64132296  0.86698528  0.19185968     0.07000
C187        C  0.64979410  0.89701398  0.20188686    -0.06100
H188        H  0.61051486  0.85471283  0.15166492     0.07700
H189        H  0.66641647  0.90281078  0.22031007     0.08900
Cu190      Cu  0.59104987  0.92581679  0.12842463     0.44200
Cu191      Cu  0.63947749  0.96765482  0.18531449     0.42000
Cu192      Cu  0.59774062  0.01050840  0.12411419     0.43900
N193        N  0.56606845  0.95318430  0.09659981    -0.34800
N194        N  0.56837772  0.98422070  0.09521718    -0.29000
C195        C  0.54815107  0.99510930  0.07340204    -0.05100
C196        C  0.53238732  0.96970232  0.06045211     0.07100
C197        C  0.54440362  0.94346784  0.07558075     0.00900
H198        H  0.54481361  0.01975019  0.06776579     0.08600
H199        H  0.53742082  0.91919691  0.07211939     0.07600
N200        N  0.62688987  0.03195407  0.15696051    -0.36200
N201        N  0.64169688  0.01664666  0.17966539    -0.28400
C202        C  0.65792356  0.03763746  0.19709748    -0.03600
C203        C  0.65294258  0.06765521  0.18498594     0.05000
C204        C  0.63344677  0.06288334  0.15922456     0.03100
H205        H  0.67215814  0.03152474  0.21731626     0.08200
H206        H  0.62505918  0.08038234  0.14277193     0.07000
O207        O  0.49490018  0.94646405  0.95881919    -0.73000
O208        O  0.42880732  0.94765975  0.02631117    -0.74000
O209        O  0.42801163  0.94977734  0.95959002    -0.62600
O210        O  0.49588822  0.94515211  0.02559335    -0.71000
O211        O  0.49733753  0.99743803  0.02695748    -0.70600
O212        O  0.43095748  0.00202581  0.96013412    -0.61800
O213        O  0.42995289  0.99993825  0.02703819    -0.74300
O214        O  0.49778247  0.99866937  0.96042354    -0.73100
Cu215      Cu  0.46179321  0.94544710  0.99254887     1.04600
Cu216      Cu  0.46404985  0.00135157  0.99372595     1.04300
C217        C  0.50688053  0.97227060  0.94909669     0.93200
C218        C  0.41881029  0.97384806  0.03722017     0.92300
C219        C  0.41913624  0.97664040  0.94922919     0.84500
C220        C  0.50737128  0.97074616  0.03655293     0.90700
N221        N  0.79224277  0.28297740  0.04537301    -0.27400
N222        N  0.81188440  0.30133596  0.06105896    -0.35200
C223        C  0.80649698  0.29793846  0.09198436     0.01000
C224        C  0.78174645  0.27692684  0.09607139     0.07000
C225        C  0.77362072  0.26772134  0.06586789    -0.06100
H226        H  0.82016350  0.30952878  0.11003828     0.07700
H227        H  0.75531460  0.25127776  0.05918487     0.08900
Cu228      Cu  0.84429405  0.33121553  0.03967666     0.44200
Cu229      Cu  0.79174491  0.27944174  0.99685303     0.42000
Cu230      Cu  0.84100805  0.33543833  0.95511742     0.43900
N231        N  0.87237597  0.36120149  0.01303143    -0.34800
N232        N  0.87100142  0.36275718  0.98205128    -0.29000
C233        C  0.89153445  0.38460846  0.97187179    -0.05100
C234        C  0.90647792  0.39753724  0.99771037     0.07100
C235        C  0.89378259  0.38217893  0.02341523     0.00900
H236        H  0.89498708  0.39088707  0.94749783     0.08600
H237        H  0.89940271  0.38620667  0.04788201     0.07600
N238        N  0.81174227  0.30325053  0.93326805    -0.36200
N239        N  0.79470207  0.28210987  0.94837503    -0.28400
C240        C  0.77920341  0.26434822  0.92729660    -0.03600
C241        C  0.78684840  0.27474500  0.89739124     0.05000
C242        C  0.80721813  0.29978892  0.90223117     0.03100
H243        H  0.76323299  0.24545728  0.93338058     0.08200
H244        H  0.81728620  0.31519179  0.88473178     0.07000
C245        C  0.69500037  0.70040742  0.26903042     0.45400
H246        H  0.68110450  0.68555628  0.28537000    -0.03600
C247        C  0.72870119  0.73544464  0.23170318     0.45400
H248        H  0.74372496  0.74972757  0.21601508    -0.03600
C249        C  0.67875853  0.73150390  0.25989069    -0.17300
C250        C  0.72690141  0.71042733  0.28303795    -0.17100
C251        C  0.70239904  0.68457952  0.23739995    -0.17500
C252        C  0.69614742  0.74998470  0.23941723    -0.17400
C253        C  0.74426214  0.72935905  0.26372819    -0.17000
C254        C  0.72142779  0.70253511  0.21829801    -0.17300
N255        N  0.64684960  0.41671124  0.17572267    -0.27400
N256        N  0.62339172  0.40205935  0.16139154    -0.35200
C257        C  0.62649166  0.37080676  0.16566778     0.01000
C258        C  0.65357707  0.36528594  0.18311894     0.07000
C259        C  0.66564731  0.39506627  0.18927312    -0.06100
H260        H  0.60967484  0.35358666  0.15733428     0.07700
H261        H  0.68648956  0.40065183  0.20287140     0.08900
Cu262      Cu  0.58861017  0.42499404  0.13596942     0.44200
Cu263      Cu  0.65104873  0.46558681  0.17810614     0.42000
Cu264      Cu  0.58765601  0.50962505  0.14106712     0.43900
N265        N  0.55967478  0.45322438  0.10867128    -0.34800
N266        N  0.55929197  0.48431623  0.11046013    -0.29000
C267        C  0.53910622  0.49568368  0.08881727    -0.05100
C268        C  0.52624738  0.47047360  0.07268474     0.07100
C269        C  0.53973715  0.44393270  0.08590481     0.00900
H270        H  0.53430666  0.52043845  0.08502141     0.08600
H271        H  0.53561180  0.41966185  0.07929497     0.07600
N272        N  0.62207189  0.52996990  0.16912081    -0.36200
N273        N  0.64586216  0.51429532  0.18180154    -0.28400
C274        C  0.66442451  0.53474208  0.19745476    -0.03600
C275        C  0.65143126  0.56469411  0.19489936     0.05000
C276        C  0.62475873  0.56063494  0.17647918     0.03100
H277        H  0.68608096  0.52826245  0.20926031     0.08200
H278        H  0.60842992  0.57872546  0.16885263     0.07000
C279        C  0.73645446  0.19873192  0.22796202     0.45400
H280        H  0.75122623  0.18341036  0.21295989    -0.03600
C281        C  0.70128640  0.23446466  0.26316097     0.45400
H282        H  0.68592529  0.24951980  0.27799813    -0.03600
C283        C  0.72679920  0.22999662  0.21211256    -0.17300
C284        C  0.70520747  0.18308895  0.23764288    -0.17100
C285        C  0.75249077  0.20840642  0.25910995    -0.17500
C286        C  0.70746653  0.24845621  0.23049993    -0.17400
C287        C  0.68730130  0.20162494  0.25722602    -0.17000
C288        C  0.73422326  0.22832923  0.27717451    -0.17300
N289        N  0.51744310  0.14723823  0.31500002    -0.27400
N290        N  0.53290415  0.13294928  0.33791469    -0.35200
C291        C  0.56379027  0.13982973  0.33521833     0.01000
C292        C  0.56802702  0.15944708  0.30938504     0.07000
C293        C  0.53799762  0.16305009  0.29694362    -0.06100
H294        H  0.58188027  0.13099166  0.35086101     0.07700
H295        H  0.53136676  0.17543202  0.27578076     0.08900
Cu296      Cu  0.51129561  0.10310726  0.37053218     0.44200
Cu297      Cu  0.46898170  0.14603891  0.30941015     0.42000
Cu298      Cu  0.42643199  0.09529935  0.36200948     0.43900
N299        N  0.48385418  0.07222923  0.39734186    -0.34800
N300        N  0.45290823  0.06963711  0.39415870    -0.29000
C301        C  0.44215177  0.04790570  0.41450483    -0.05100
C302        C  0.46749390  0.03599438  0.43121633     0.07100
C303        C  0.49358679  0.05192306  0.41971287     0.00900
H304        H  0.41766769  0.04113136  0.41679297     0.08600
H305        H  0.51784960  0.04900795  0.42710191     0.07600
N306        N  0.40468572  0.12483935  0.32968010    -0.36200
N307        N  0.42026783  0.14392043  0.31077695    -0.28400
C308        C  0.39950482  0.16158166  0.29456247    -0.03600
C309        C  0.36930634  0.15342815  0.30387555     0.05000
C310        C  0.37358406  0.12958649  0.32574839     0.03100
H311        H  0.40596384  0.17969953  0.27791165     0.08200
H312        H  0.35554055  0.11660141  0.33808941     0.07000
N313        N  0.01564294  0.16421273  0.67539445    -0.27400
N314        N  0.03152893  0.14458266  0.65719925    -0.35200
C315        C  0.06259513  0.14908922  0.66193590     0.01000
C316        C  0.06639945  0.17294784  0.68382683     0.07000
C317        C  0.03610434  0.18173975  0.69205781    -0.06100
H318        H  0.08108438  0.13616368  0.65009019     0.07700
H319        H  0.02933300  0.19930176  0.70918249     0.08900
Cu320      Cu  0.01027001  0.11292416  0.62632865     0.44200
Cu321      Cu  0.96695154  0.16717582  0.67644818     0.42000
Cu322      Cu  0.92527987  0.11912670  0.61990699     0.43900
N323        N  0.98312371  0.08426898  0.59714388    -0.34800
N324        N  0.95209303  0.08665537  0.59474878    -0.29000
C325        C  0.94154852  0.06460045  0.57455965    -0.05100
C326        C  0.96713277  0.04753195  0.56366435     0.07100
C327        C  0.99311636  0.06066608  0.57846430     0.00900
H328        H  0.91701096  0.06107673  0.56847848     0.08600
H329        H  0.01746511  0.05339988  0.57608970     0.07600
N330        N  0.90319370  0.15094641  0.64995869    -0.36200
N331        N  0.91847045  0.16812949  0.67092361    -0.28400
C332        C  0.89752205  0.18468749  0.68794140    -0.03600
C333        C  0.86748861  0.17785124  0.67706997     0.05000
C334        C  0.87205736  0.15617219  0.65310688     0.03100
H335        H  0.90370636  0.19941723  0.70774171     0.08200
H336        H  0.85399182  0.14435747  0.63953858     0.07000
O337        O  0.99253801  0.00785699  0.53310672    -0.73000
O338        O  0.99083072  0.93427917  0.47305845    -0.74000
O339        O  0.99402990  0.00071048  0.46643201    -0.62600
O340        O  0.98909634  0.94134685  0.53999811    -0.71000
O341        O  0.93678771  0.94382703  0.53851931    -0.70600
O342        O  0.94168795  0.00232261  0.46499426    -0.61800
O343        O  0.93850645  0.93613437  0.47220221    -0.74300
O344        O  0.94026333  0.01029041  0.53135231    -0.73100
Cu345      Cu  0.99348741  0.97091765  0.50325239     1.04600
Cu346      Cu  0.93753045  0.97322081  0.50174687     1.04300
C347        C  0.96663761  0.02067331  0.54164995     0.93200
C348        C  0.96440904  0.92396319  0.46280846     0.92300
C349        C  0.96841364  0.01062351  0.45399994     0.84500
C350        C  0.96216903  0.93342031  0.55091078     0.90700
N351        N  0.13689261  0.28607194  0.54597154    -0.27400
N352        N  0.11633420  0.30257297  0.56249773    -0.35200
C353        C  0.12218655  0.29805898  0.59323456     0.01000
C354        C  0.14757154  0.27761379  0.59615299     0.07000
C355        C  0.15641059  0.27081879  0.56565259    -0.06100
H356        H  0.10938033  0.30941261  0.61205754     0.07700
H357        H  0.17644366  0.25697860  0.55814169     0.08900
Cu358      Cu  0.08353939  0.33285372  0.54237624     0.44200
Cu359      Cu  0.13932479  0.28603614  0.49748268     0.42000
Cu360      Cu  0.08715482  0.33791007  0.45669648     0.43900
N361        N  0.05742540  0.36444404  0.51562895    -0.34800
N362        N  0.05874945  0.36610809  0.48463041    -0.29000
C363        C  0.03982242  0.38952233  0.47470319    -0.05100
C364        C  0.02608586  0.40337092  0.50064974     0.07100
C365        C  0.03767189  0.38688091  0.52621645     0.00900
H366        H  0.03652507  0.39611309  0.45037511     0.08600
H367        H  0.03226086  0.39093872  0.55070485     0.07600
N368        N  0.11950259  0.30929707  0.43390191    -0.36200
N369        N  0.13866736  0.29004355  0.44908195    -0.28400
C370        C  0.15694515  0.27489494  0.42821650    -0.03600
C371        C  0.14882118  0.28490644  0.39828887     0.05000
C372        C  0.12517869  0.30705063  0.40290841     0.03100
H373        H  0.17478748  0.25772399  0.43440129     0.08200
H374        H  0.11344243  0.32113235  0.38524733     0.07000
N375        N  0.28597481  0.93171001  0.80580106    -0.27400
N376        N  0.29864960  0.91763662  0.83043822    -0.35200
C377        C  0.28974810  0.88731146  0.83082918     0.01000
C378        C  0.27028157  0.88192874  0.80528664     0.07000
C379        C  0.26862034  0.91060344  0.78976259    -0.06100
H380        H  0.29742826  0.87028563  0.84814415     0.07700
H381        H  0.25675476  0.91554832  0.76780475     0.08900
Cu382      Cu  0.32891962  0.93947146  0.86139959     0.44200
Cu383      Cu  0.29343282  0.97882856  0.79541668     0.42000
Cu384      Cu  0.34263260  0.02225474  0.85138354     0.43900
N385        N  0.35977321  0.96481590  0.88891727    -0.34800
N386        N  0.36484219  0.99535118  0.88562504    -0.29000
C387        C  0.38642187  0.00450226  0.90697509    -0.05100
C388        C  0.39533755  0.97832283  0.92426422     0.07100
C389        C  0.37803547  0.95361271  0.91217258     0.00900
H390        H  0.39535846  0.02826153  0.90932592     0.08600
H391        H  0.37880478  0.92922035  0.91952374     0.07600
N392        N  0.31681268  0.04295657  0.81539605    -0.36200
N393        N  0.29980157  0.02723203  0.79455327    -0.28400
C394        C  0.28434719  0.04789090  0.77613735    -0.03600
C395        C  0.29188233  0.07799948  0.78595538     0.05000
C396        C  0.31234241  0.07398499  0.81096534     0.03100
H397        H  0.26704198  0.04145009  0.75856761     0.08200
H398        H  0.32199112  0.09225421  0.82587452     0.07000
C399        C  0.20223727  0.20986213  0.76228476     0.45400
H400        H  0.18816145  0.19290595  0.77628267    -0.03600
C401        C  0.23482751  0.24992110  0.72911621     0.45400
H402        H  0.24828650  0.26683299  0.71447537    -0.03600
C403        C  0.23534547  0.19770941  0.75345859    -0.17300
C404        C  0.18654173  0.21858115  0.73085241    -0.17100
C405        C  0.20801102  0.24155750  0.77903084    -0.17500
C406        C  0.25243826  0.21880308  0.73572351    -0.17400
C407        C  0.20358464  0.24002025  0.71376462    -0.17000
C408        C  0.22554844  0.26267668  0.76170521    -0.17300
N409        N  0.51628098  0.14990916  0.68097485    -0.27400
N410        N  0.53124995  0.13122426  0.66119271    -0.35200
C411        C  0.56250428  0.13493258  0.66475663     0.01000
C412        C  0.56763111  0.15671977  0.68837634     0.07000
C413        C  0.53771363  0.16585346  0.69794965    -0.06100
H414        H  0.57997145  0.12349913  0.65022537     0.07700
H415        H  0.53191768  0.18328056  0.71556696     0.08900
Cu416      Cu  0.50860945  0.10220650  0.62983920     0.44200
Cu417      Cu  0.46752075  0.15469741  0.68186387     0.42000
Cu418      Cu  0.42268884  0.10675638  0.62742455     0.43900
N419        N  0.48093482  0.07432155  0.60158611    -0.34800
N420        N  0.44976246  0.07554244  0.60060487    -0.29000
C421        C  0.43946607  0.05399241  0.57977210    -0.05100
C422        C  0.46543089  0.03869767  0.56721331     0.07100
C423        C  0.49128410  0.05217180  0.58155985     0.00900
H424        H  0.41492631  0.04983936  0.57412077     0.08600
H425        H  0.51584172  0.04634329  0.57779627     0.07600
N426        N  0.40231347  0.14104538  0.65634513    -0.36200
N427        N  0.41894370  0.15830089  0.67623066    -0.28400
C428        C  0.39941028  0.17776665  0.69179654    -0.03600
C429        C  0.36888627  0.17292891  0.68116683     0.05000
C430        C  0.37164321  0.14920011  0.65882391     0.03100
H431        H  0.40687473  0.19409426  0.70985145     0.08200
H432        H  0.35267082  0.13787688  0.64611117     0.07000
C433        C  0.69750209  0.24131429  0.73341307     0.45400
H434        H  0.68255530  0.25766505  0.71971409    -0.03600
C435        C  0.73509934  0.20389345  0.76432274     0.45400
H436        H  0.75165509  0.18866147  0.77766717    -0.03600
C437        C  0.72744165  0.23278060  0.71534302    -0.17300
C438        C  0.70894223  0.25493496  0.76515615    -0.17100
C439        C  0.68242882  0.20912111  0.74119478    -0.17500
C440        C  0.74715803  0.21277592  0.73126743    -0.17400
C441        C  0.72901932  0.23522854  0.78095528    -0.17000
C442        C  0.70170513  0.19003601  0.75956355    -0.17300
N443        N  0.64927074  0.41968158  0.83011460    -0.27400
N444        N  0.63169884  0.40420350  0.85051163    -0.35200
C445        C  0.63723765  0.37310250  0.84729733     0.01000
C446        C  0.65877376  0.36862097  0.82308695     0.07000
C447        C  0.66607591  0.39889109  0.81318337    -0.06100
H448        H  0.62630599  0.35529612  0.86172359     0.07700
H449        H  0.68181289  0.40537378  0.79430254     0.08900
Cu450      Cu  0.59877797  0.42616564  0.87964053     0.44200
Cu451      Cu  0.64885346  0.46831843  0.82512374     0.42000
Cu452      Cu  0.59278530  0.51125497  0.87258587     0.43900
N453        N  0.56577687  0.45350299  0.90375219    -0.34800
N454        N  0.56394121  0.48451824  0.90121626    -0.29000
C455        C  0.54099202  0.49524210  0.92017087    -0.05100
C456        C  0.52759868  0.46979775  0.93534535     0.07100
C457        C  0.54378951  0.44367648  0.92433313     0.00900
H458        H  0.53477245  0.51981968  0.92293917     0.08600
H459        H  0.54028658  0.41939982  0.93123260     0.07600
N460        N  0.62348701  0.53262243  0.84152814    -0.36200
N461        N  0.64397309  0.51695867  0.82413518    -0.28400
C462        C  0.66076474  0.53762910  0.80709282    -0.03600
C463        C  0.65012709  0.56773333  0.81385175     0.05000
C464        C  0.62667008  0.56364487  0.83601984     0.03100
H465        H  0.67959574  0.53123816  0.79120477     0.08200
H466        H  0.61359422  0.58185253  0.84811030     0.07000
C467        C  0.73012673  0.73619656  0.77402552     0.45400
H468        H  0.74377143  0.75286764  0.78883330    -0.03600
C469        C  0.69691108  0.69853774  0.73869782     0.45400
H470        H  0.68233866  0.68278557  0.72374828    -0.03600
C471        C  0.69814835  0.74983753  0.76391960    -0.17300
C472        C  0.74652023  0.72708477  0.74318018    -0.17100
C473        C  0.72267027  0.70462664  0.79007137    -0.17500
C474        C  0.68077498  0.73031963  0.74500455    -0.17400
C475        C  0.72920221  0.70692437  0.72453922    -0.17000
C476        C  0.70467127  0.68495847  0.77141322    -0.17300
N477        N  0.51232224  0.78712335  0.68627085    -0.27400
N478        N  0.52863725  0.80726233  0.66907987    -0.35200
C479        C  0.55948842  0.80372692  0.67594686     0.01000
C480        C  0.56252736  0.78060495  0.69882495     0.07000
C481        C  0.53213225  0.77050924  0.70456644    -0.06100
H482        H  0.57838038  0.81660699  0.66474389     0.07700
H483        H  0.52498393  0.75152979  0.71992932     0.08900
Cu484      Cu  0.50776685  0.83764287  0.63627576     0.44200
Cu485      Cu  0.46414006  0.78132353  0.68307499     0.42000
Cu486      Cu  0.42329340  0.82833731  0.62520115     0.43900
N487        N  0.48076259  0.86504711  0.60533770    -0.34800
N488        N  0.44995598  0.86166618  0.60159450    -0.29000
C489        C  0.43955018  0.88279672  0.58037460    -0.05100
C490        C  0.46500997  0.90025186  0.57003722     0.07100
C491        C  0.49076562  0.88833656  0.58630720     0.00900
H492        H  0.41529590  0.88493812  0.57269686     0.08600
H493        H  0.51503070  0.89594559  0.58434401     0.07600
N494        N  0.40114990  0.79631869  0.65450987    -0.36200
N495        N  0.41601512  0.77969829  0.67618222    -0.28400
C496        C  0.39473452  0.76410119  0.69358092    -0.03600
C497        C  0.36490681  0.77088314  0.68209097     0.05000
C498        C  0.36999651  0.79149687  0.65734653     0.03100
H499        H  0.40058844  0.75058246  0.71430352     0.08200
H500        H  0.35228686  0.80329892  0.64329051     0.07000
C501        C  0.19451362  0.74769183  0.76779991     0.45400
H502        H  0.18017109  0.76319842  0.78318842    -0.03600
C503        C  0.22767168  0.71121062  0.73147436     0.45400
H504        H  0.24184844  0.69578690  0.71589943    -0.03600
C505        C  0.17843148  0.74027626  0.73632478    -0.17300
C506        C  0.22675648  0.76158141  0.75893406    -0.17100
C507        C  0.20209090  0.71552466  0.78254091    -0.17500
C508        C  0.19526933  0.71979473  0.71780744    -0.17400
C509        C  0.24372828  0.74291029  0.73856633    -0.17000
C510        C  0.22051762  0.69661772  0.76369143    -0.17300
N511        N  0.00485628  0.80659424  0.30437668    -0.27400
N512        N  0.02168726  0.82044652  0.32661212    -0.35200
C513        C  0.05226379  0.81327259  0.32245261     0.01000
C514        C  0.05476541  0.79349297  0.29677072     0.07000
C515        C  0.02427425  0.78987980  0.28571245    -0.06100
H516        H  0.07121157  0.82099168  0.33767371     0.07700
H517        H  0.01669363  0.77592068  0.26582654     0.08900
Cu518      Cu  0.00243456  0.84582575  0.36362832     0.44200
Cu519      Cu  0.95610312  0.80903047  0.30213316     0.42000
Cu520      Cu  0.91812535  0.83919771  0.37243434     0.43900
N521        N  0.97755944  0.86758758  0.39960124    -0.34800
N522        N  0.94662940  0.86523887  0.40281089    -0.29000
C523        C  0.93738027  0.88392644  0.42664636    -0.05100
C524        C  0.96375262  0.89861771  0.43911743     0.07100
C525        C  0.98882539  0.88759543  0.42145821     0.00900
H526        H  0.91309604  0.88757186  0.43352041     0.08600
H527        H  0.01323039  0.89481808  0.42329215     0.07600
N528        N  0.89427905  0.81624501  0.33616926    -0.36200
N529        N  0.90793314  0.80717706  0.30982202    -0.28400
C530        C  0.88630700  0.79347398  0.29121113    -0.03600
C531        C  0.85742304  0.79353717  0.30649116     0.05000
C532        C  0.86365516  0.80794841  0.33518859     0.03100
H533        H  0.89160172  0.78325784  0.26855930     0.08200
H534        H  0.84774229  0.81086332  0.35473213     0.07000
C535        C  0.22345795  0.71042293  0.26976464     0.45400
H536        H  0.23692465  0.69494099  0.28596488    -0.03600
C537        C  0.19346641  0.74767181  0.23146644     0.45400
H538        H  0.18033327  0.76356137  0.21535842    -0.03600
C539        C  0.19091639  0.72073366  0.28242187    -0.17300
C540        C  0.24140033  0.74093899  0.26217474    -0.17100
C541        C  0.21650968  0.69535260  0.23756379    -0.17500
C542        C  0.17548908  0.74105184  0.26219083    -0.17400
C543        C  0.22595147  0.76051710  0.24148233    -0.17000
C544        C  0.20041371  0.71497021  0.21735482    -0.17300
N545        N  0.28145565  0.42960124  0.19025251    -0.27400
N546        N  0.30398035  0.41436019  0.17511949    -0.35200
C547        C  0.30073126  0.38328732  0.18031556     0.01000
C548        C  0.27460557  0.37874232  0.19919876     0.07000
C549        C  0.26315807  0.40865074  0.20532521    -0.06100
H550        H  0.31578961  0.36525981  0.17041686     0.07700
H551        H  0.24316300  0.41481090  0.21982513     0.08900
Cu552      Cu  0.33643651  0.43627349  0.14602256     0.44200
Cu553      Cu  0.27665198  0.47810307  0.18959449     0.42000
Cu554      Cu  0.33106338  0.52109881  0.13937878     0.43900
N555        N  0.36212655  0.46239729  0.11381622    -0.34800
N556        N  0.36018680  0.49339453  0.11117948    -0.29000
C557        C  0.37896013  0.50281369  0.08748630    -0.05100
C558        C  0.39314718  0.47644524  0.07449611     0.07100
C559        C  0.38199287  0.45127773  0.09183602     0.00900
H560        H  0.38185064  0.52702699  0.08009557     0.08600
H561        H  0.38778334  0.42664758  0.08865640     0.07600
N562        N  0.29906046  0.54255033  0.16979301    -0.36200
N563        N  0.27891561  0.52674299  0.18746077    -0.28400
C564        C  0.26129394  0.54722496  0.20393434    -0.03600
C565        C  0.27104000  0.57741579  0.19670935     0.05000
C566        C  0.29486270  0.57360527  0.17479353     0.03100
H567        H  0.24290587  0.54059821  0.22021886     0.08200
H568        H  0.30779819  0.59202876  0.16291758     0.07000
N569        N  0.13328413  0.66661263  0.54978959    -0.27400
N570        N  0.11981251  0.64306912  0.56498989    -0.35200
C571        C  0.12763856  0.64490547  0.59557770     0.01000
C572        C  0.14720509  0.67074750  0.59994109     0.07000
C573        C  0.14973316  0.68418933  0.57036069    -0.06100
H574        H  0.11981846  0.62843691  0.61330731     0.07700
H575        H  0.16213568  0.70550179  0.56410329     0.08900
Cu576      Cu  0.09115775  0.60969816  0.54350310     0.44200
Cu577      Cu  0.13058439  0.67295961  0.50141403     0.42000
Cu578      Cu  0.08773806  0.61309002  0.45849891     0.43900
N579        N  0.06317280  0.58002283  0.51646279    -0.34800
N580        N  0.06194608  0.58111331  0.48543669    -0.29000
C581        C  0.04135350  0.55921078  0.47521836    -0.05100
C582        C  0.02905740  0.54364102  0.50103556     0.07100
C583        C  0.04339945  0.55748957  0.52677319     0.00900
H584        H  0.03547012  0.55518804  0.45081030     0.08600
H585        H  0.03954595  0.55182472  0.55123387     0.07600
N586        N  0.11412734  0.64852163  0.43696388    -0.36200
N587        N  0.12896196  0.67102277  0.45259821    -0.28400
C588        C  0.14369290  0.69006837  0.43198684    -0.03600
C589        C  0.13786213  0.67905558  0.40189271     0.05000
C590        C  0.11932028  0.65250065  0.40603902     0.03100
H591        H  0.15857892  0.70971580  0.43849509     0.08200
H592        H  0.11051983  0.63699708  0.38785747     0.07000
N593        N  0.00669910  0.79641057  0.68879422    -0.27400
N594        N  0.02161217  0.82031401  0.67575464    -0.35200
C595        C  0.05246535  0.81809174  0.68238496     0.01000
C596        C  0.05723371  0.79154695  0.70070068     0.07000
C597        C  0.02766094  0.77816288  0.70401306    -0.06100
H598        H  0.07018249  0.83438734  0.67405951     0.07700
H599        H  0.02180328  0.75634533  0.71572455     0.08900
Cu600      Cu  0.99954106  0.85345023  0.64791545     0.44200
Cu601      Cu  0.95860372  0.79077492  0.68556746     0.42000
Cu602      Cu  0.91425853  0.84833531  0.63983916     0.43900
N603        N  0.97355724  0.88035049  0.61688054    -0.34800
N604        N  0.94255367  0.87868080  0.61372462    -0.29000
C605        C  0.93360988  0.89792272  0.59020237    -0.05100
C606        C  0.96031809  0.91202599  0.57792457     0.07100
C607        C  0.98516603  0.90042552  0.59543580     0.00900
H608        H  0.90958850  0.90066052  0.58200408     0.08600
H609        H  0.00996377  0.90554007  0.59233869     0.07600
N610        N  0.89363180  0.81453930  0.66873078    -0.36200
N611        N  0.91013878  0.79371614  0.68499265    -0.28400
C612        C  0.89045516  0.77577008  0.70187292    -0.03600
C613        C  0.85992533  0.78571631  0.69628247     0.05000
C614        C  0.86277854  0.81014959  0.67480059     0.03100
H615        H  0.89794120  0.75705588  0.71745572     0.08200
H616        H  0.84391926  0.82345291  0.66395310     0.07000
N617        N  0.65101130  0.01846241  0.81555257    -0.27400
N618        N  0.63484668  0.03334792  0.83751943    -0.35200
C619        C  0.64192830  0.06419104  0.83644537     0.01000
C620        C  0.66373277  0.06911820  0.81272997     0.07000
C621        C  0.66878817  0.03949830  0.79988679    -0.06100
H622        H  0.63115350  0.08192709  0.85119925     0.07700
H623        H  0.68297439  0.03383739  0.77957667     0.08900
Cu624      Cu  0.60172253  0.01165378  0.86615442     0.44200
Cu625      Cu  0.64635474  0.97054308  0.80693183     0.42000
Cu626      Cu  0.59015169  0.92803916  0.85628608     0.43900
N627        N  0.56891751  0.98581587  0.89154010    -0.34800
N628        N  0.56486734  0.95509774  0.88826078    -0.29000
C629        C  0.54224533  0.94551433  0.90823946    -0.05100
C630        C  0.53144611  0.97151075  0.92470887     0.07100
C631        C  0.54884844  0.99663408  0.91349111     0.00900
H632        H  0.53416702  0.92144459  0.91049246     0.08600
H633        H  0.54718618  0.02098180  0.92084604     0.07600
N634        N  0.61896770  0.90685441  0.82292772    -0.36200
N635        N  0.63921276  0.92221675  0.80499454    -0.28400
C636        C  0.65591631  0.90128160  0.78808200    -0.03600
C637        C  0.64565892  0.87125942  0.79558672     0.05000
C638        C  0.62227697  0.87577683  0.81783040     0.03100
H639        H  0.67554493  0.90744248  0.77312399     0.08200
H640        H  0.60956058  0.85770072  0.83046057     0.07000
N641        N  0.01715538  0.15038427  0.31881706    -0.27400
N642        N  0.03311178  0.12795424  0.33341503    -0.35200
C643        C  0.06402148  0.13169427  0.32752307     0.01000
C644        C  0.06779541  0.15758499  0.30806534     0.07000
C645        C  0.03752633  0.16906264  0.30339840    -0.06100
H646        H  0.08242797  0.11660352  0.33672978     0.07700
H647        H  0.03069834  0.18978019  0.29026576     0.08900
Cu648      Cu  0.01240967  0.09367381  0.36134347     0.44200
Cu649      Cu  0.96831329  0.15382697  0.31910706     0.42000
Cu650      Cu  0.92696522  0.09186483  0.35948979     0.43900
N651        N  0.98542271  0.06440571  0.38958770    -0.34800
N652        N  0.95424302  0.06384752  0.38869532    -0.29000
C653        C  0.94365350  0.04419913  0.41101755    -0.05100
C654        C  0.96934427  0.03185085  0.42679956     0.07100
C655        C  0.99550442  0.04502474  0.41256204     0.00900
H656        H  0.91900176  0.03994210  0.41597434     0.08600
H657        H  0.01996365  0.04155044  0.41900447     0.07600
N658        N  0.90455277  0.12556884  0.33221790    -0.36200
N659        N  0.91963820  0.14870256  0.31794091    -0.28400
C660        C  0.89854421  0.16679970  0.30266518    -0.03600
C661        C  0.86867714  0.15469549  0.30785609     0.05000
C662        C  0.87347233  0.12832902  0.32644329     0.03100
H663        H  0.90449677  0.18738683  0.28893059     0.08200
H664        H  0.85578852  0.11207193  0.33488189     0.07000
C665        C  0.23753061  0.23914482  0.27008544     0.45400
H666        H  0.25329679  0.25341520  0.28496428    -0.03600
C667        C  0.20021871  0.20608448  0.23445209     0.45400
H668        H  0.18463698  0.19192045  0.21892789    -0.03600
C669        C  0.22900802  0.25602401  0.23929084    -0.17300
C670        C  0.25154632  0.20699237  0.25960111    -0.17100
C671        C  0.20544575  0.23169301  0.28570220    -0.17500
C672        C  0.20853947  0.23872147  0.22087919    -0.17400
C673        C  0.23170113  0.18991172  0.24073345    -0.17000
C674        C  0.18675008  0.21218324  0.26742194    -0.17300
N675        N  0.77960653  0.63933250  0.05395136    -0.27400
N676        N  0.80186831  0.62348177  0.06884244    -0.35200
C677        C  0.79930343  0.62901214  0.09982817     0.01000
C678        C  0.77383569  0.64899119  0.10460915     0.07000
C679        C  0.76214869  0.65517451  0.07489851    -0.06100
H680        H  0.81537760  0.61983214  0.11732059     0.07700
H681        H  0.74247532  0.67027096  0.06884649     0.08900
Cu682      Cu  0.83434226  0.59540223  0.04570251     0.44200
Cu683      Cu  0.77500530  0.64044910  0.00591402     0.42000
Cu684      Cu  0.83132731  0.59697361  0.95974070     0.43900
N685        N  0.86271959  0.56819344  0.01686879    -0.34800
N686        N  0.86177493  0.56863500  0.98580395    -0.29000
C687        C  0.88331956  0.54816239  0.97469738    -0.05100
C688        C  0.89841324  0.53424717  0.99998642     0.07100
C689        C  0.88478307  0.54747675  0.02630457     0.00900
H690        H  0.88773390  0.54384516  0.95005543     0.08600
H691        H  0.89056326  0.54255525  0.05057455     0.07600
N692        N  0.79748386  0.62693245  0.94053006    -0.36200
N693        N  0.77651489  0.64218899  0.95771518    -0.28400
C694        C  0.75787664  0.65953474  0.93892231    -0.03600
C695        C  0.76744950  0.65493861  0.90833355     0.05000
C696        C  0.79282300  0.63440036  0.91016393     0.03100
H697        H  0.73929882  0.67498360  0.94706156     0.08200
H698        H  0.80683980  0.62559061  0.89085530     0.07000
O699        O  0.42666945  0.50094376  0.03693886    -0.73000
O700        O  0.49311381  0.49737888  0.96968596    -0.74000
O701        O  0.42623232  0.50031501  0.96985715    -0.62600
O702        O  0.49335068  0.49799184  0.03664001    -0.71000
O703        O  0.49150237  0.44569503  0.03662709    -0.70600
O704        O  0.42395061  0.44805599  0.97035579    -0.61800
O705        O  0.49108418  0.44510744  0.96992232    -0.74300
O706        O  0.42492694  0.44867017  0.03763105    -0.73100
Cu707      Cu  0.45989419  0.50097508  0.00320324     1.04600
Cu708      Cu  0.45773230  0.44505537  0.00358316     1.04300
C709        C  0.41583860  0.47531407  0.04835634     0.93200
C710        C  0.50268841  0.47076551  0.95934809     0.92300
C711        C  0.41463578  0.47455300  0.95947567     0.84500
C712        C  0.50271914  0.47146255  0.04736598     0.90700
O713        O  0.49258558  0.00080974  0.46700844    -0.73000
O714        O  0.49124155  0.93545752  0.53542640    -0.74000
O715        O  0.49088200  0.93351686  0.46881004    -0.62600
O716        O  0.49182595  0.00244667  0.53370035    -0.71000
O717        O  0.43944235  0.00300603  0.53313661    -0.70600
O718        O  0.43850320  0.93479035  0.46850432    -0.61800
O719        O  0.43888456  0.93576974  0.53499848    -0.74300
O720        O  0.44024139  0.00172134  0.46638540    -0.73100
Cu721      Cu  0.49347596  0.96803686  0.50122602     1.04600
Cu722      Cu  0.43745356  0.96888870  0.50075772     1.04300
C723        C  0.46672626  0.01168338  0.45599287     0.93200
C724        C  0.46499394  0.92507990  0.54579316     0.92300
C725        C  0.46441358  0.92319667  0.45866307     0.84500
C726        C  0.46560614  0.01354000  0.54358790     0.90700
O727        O  0.92762562  0.50819647  0.52728127    -0.73000
O728        O  0.99335965  0.44027982  0.52697516    -0.74000
O729        O  0.99470738  0.50765760  0.52714678    -0.62600
O730        O  0.92653196  0.44127848  0.52661364    -0.71000
O731        O  0.92660864  0.44197251  0.47448151    -0.70600
O732        O  0.99429631  0.50815229  0.47502937    -0.61800
O733        O  0.99345383  0.44086998  0.47483153    -0.74300
O734        O  0.92733201  0.50869934  0.47512911    -0.73100
Cu735      Cu  0.96061967  0.47437649  0.52884643     1.04600
Cu736      Cu  0.96049257  0.47494807  0.47306770     1.04300
C737        C  0.91696338  0.51896750  0.50134893     0.93200
C738        C  0.00336972  0.42950378  0.50083673     0.92300
C739        C  0.00497981  0.51857505  0.50110400     0.84500
C740        C  0.91587276  0.43123306  0.50033939     0.90700
C741        C  0.12428435  0.17010122  0.31690199    -0.09200
C742        C  0.09805849  0.17090327  0.29678546     0.07000
C743        C  0.10177235  0.18352129  0.26636451    -0.03000
C744        C  0.13092506  0.19587520  0.25723104    -0.07500
C745        C  0.15672525  0.19684498  0.27796492     0.06100
C746        C  0.15337822  0.18257514  0.30783821    -0.02500
Br747      Br  0.18751770  0.17700944  0.33700026    -0.02200
H748        H  0.12215639  0.15977325  0.34005570     0.10000
H749        H  0.13324912  0.20478346  0.23361773     0.08000
Br750      Br  0.06894976  0.18282464  0.23524187    -0.02600
C751        C  0.21990250  0.31104443  0.21973842    -0.09200
C752        C  0.24118791  0.28822514  0.23099039     0.07000
C753        C  0.27342968  0.29685575  0.23366257    -0.03000
C754        C  0.28355520  0.32637798  0.22314936    -0.07500
C755        C  0.26231692  0.34829619  0.21065721     0.06100
C756        C  0.23010740  0.34047537  0.20912322    -0.02500
Br757      Br  0.19919778  0.36771966  0.19040258    -0.02200
H758        H  0.19500719  0.30612985  0.21907892     0.10000
H759        H  0.30833705  0.33239309  0.22494051     0.08000
Br760      Br  0.30580899  0.27070641  0.25109001    -0.02600
C761        C  0.16373009  0.73171158  0.33405954    -0.09200
C762        C  0.17800055  0.70979701  0.31358713     0.07000
C763        C  0.17922827  0.67784865  0.32333663    -0.03000
C764        C  0.16624344  0.66870424  0.35210742    -0.07500
C765        C  0.15161832  0.69047789  0.37197131     0.06100
C766        C  0.15011375  0.72226027  0.36258018    -0.02500
Br767      Br  0.12718904  0.75307392  0.38632368    -0.02200
H768        H  0.16288172  0.75640573  0.32782277     0.10000
H769        H  0.16743691  0.64414801  0.35899660     0.08000
Br770      Br  0.19630888  0.64429207  0.29869829    -0.02600
C771        C  0.26213952  0.65960491  0.23087308    -0.09200
C772        C  0.22934908  0.66390257  0.22909062     0.07000
C773        C  0.21027532  0.63869314  0.21875711    -0.03000
C774        C  0.22437836  0.61061356  0.20876398    -0.07500
C775        C  0.25731553  0.60713163  0.20859002     0.06100
C776        C  0.27625159  0.63180307  0.22024143    -0.02500
Br777      Br  0.32131869  0.62866979  0.22314172    -0.02200
H778        H  0.27700429  0.67855881  0.23935685     0.10000
H779        H  0.20951418  0.59149744  0.20067734     0.08000
Br780      Br  0.16503393  0.64013158  0.21987306    -0.02600
C781        C  0.10983847  0.79955808  0.27933895    -0.09200
C782        C  0.08419953  0.77953215  0.28459001     0.07000
C783        C  0.08812844  0.74677808  0.28048461    -0.03000
C784        C  0.11777255  0.73467072  0.27224980    -0.07500
C785        C  0.14372380  0.75475583  0.26799236     0.06100
C786        C  0.13927611  0.78757696  0.27088752    -0.02500
Br787      Br  0.17268874  0.81743355  0.26630875    -0.02200
H788        H  0.10708315  0.82475704  0.28246673     0.10000
H789        H  0.12083963  0.70941835  0.27003119     0.08000
Br790      Br  0.05479299  0.71738994  0.28854773    -0.02600
C791        C  0.12235958  0.75224031  0.74831170    -0.09200
C792        C  0.14778697  0.75466130  0.72744118     0.07000
C793        C  0.14353994  0.77111489  0.69896656    -0.03000
C794        C  0.11381318  0.78243178  0.69081867    -0.07500
C795        C  0.08800427  0.77884550  0.71098103     0.06100
C796        C  0.09260979  0.76417276  0.74039219    -0.02500
Br797      Br  0.06021910  0.76161823  0.77166450    -0.02200
H798        H  0.12556379  0.74060111  0.77074229     0.10000
H799        H  0.11096109  0.79432613  0.66849014     0.08000
Br800      Br  0.17733996  0.78178164  0.67123382    -0.02600
C801        C  0.20157593  0.70848920  0.66087881    -0.09200
C802        C  0.18340574  0.70563531  0.68814152     0.07000
C803        C  0.15492088  0.68856585  0.68681822    -0.03000
C804        C  0.14369982  0.67746244  0.65795739    -0.07500
C805        C  0.16083532  0.68212285  0.63010833     0.06100
C806        C  0.19067447  0.69696596  0.63204422    -0.02500
Br807      Br  0.21907656  0.70033519  0.59719519    -0.02200
H808        H  0.22422461  0.72027121  0.66195041     0.10000
H809        H  0.12138238  0.66509206  0.65738350     0.08000
Br810      Br  0.13206622  0.67683990  0.72390481    -0.02600
C811        C  0.30992780  0.78546697  0.69521962    -0.09200
C812        C  0.33409889  0.76291965  0.69637470     0.07000
C813        C  0.32800566  0.73362734  0.71082581    -0.03000
C814        C  0.29869576  0.72812532  0.72480603    -0.07500
C815        C  0.27468641  0.75096331  0.72414722     0.06100
C816        C  0.28034784  0.77958427  0.70819188    -0.02500
Br817      Br  0.24865402  0.81062524  0.69986452    -0.02200
H818        H  0.31385893  0.80790318  0.68378836     0.10000
H819        H  0.29457394  0.70566366  0.73616462     0.08000
Br820      Br  0.35724538  0.69909156  0.70993698    -0.02600
C821        C  0.62498842  0.74668476  0.75359933    -0.09200
C822        C  0.64920721  0.73935967  0.73236112     0.07000
C823        C  0.64407876  0.74488796  0.70008541    -0.03000
C824        C  0.61583926  0.75848412  0.68982733    -0.07500
C825        C  0.59200943  0.76649195  0.71108966     0.06100
C826        C  0.59667711  0.76029036  0.74331711    -0.02500
Br827      Br  0.56670170  0.77263917  0.77466555    -0.02200
H828        H  0.62863683  0.74290738  0.77850129     0.10000
H829        H  0.61246082  0.76283416  0.66497365     0.08000
Br830      Br  0.67485836  0.73621579  0.66866584    -0.02600
C831        C  0.71234190  0.68313601  0.84392719    -0.09200
C832        C  0.73376255  0.69647152  0.82251623     0.07000
C833        C  0.76581270  0.69907988  0.83171236    -0.03000
C834        C  0.77603597  0.68562920  0.85988372    -0.07500
C835        C  0.75493865  0.67042236  0.87995274     0.06100
C836        C  0.72263394  0.66998758  0.87226993    -0.02500
Br837      Br  0.69195292  0.64920575  0.89800580    -0.02200
H838        H  0.68749301  0.68198923  0.83815951     0.10000
H839        H  0.80082177  0.68679096  0.86607607     0.08000
Br840      Br  0.79793719  0.71875044  0.80711186    -0.02600
C841        C  0.68415465  0.80478019  0.74931765    -0.09200
C842        C  0.68756633  0.78184785  0.77278151     0.07000
C843        C  0.67763924  0.78865090  0.80350368    -0.03000
C844        C  0.66427751  0.81791496  0.81029393    -0.07500
C845        C  0.66041500  0.84087387  0.78686346     0.06100
C846        C  0.67057223  0.83408599  0.75602102    -0.02500
Br847      Br  0.66396518  0.86235252  0.72148364    -0.02200
H848        H  0.69113724  0.79940791  0.72544174     0.10000
H849        H  0.65669475  0.82265182  0.83410212     0.08000
Br850      Br  0.67943091  0.75817998  0.83659329    -0.02600
C851        C  0.77791517  0.77460030  0.73075603    -0.09200
C852        C  0.77673663  0.74172850  0.73362761     0.07000
C853        C  0.80351910  0.72371451  0.72576472    -0.03000
C854        C  0.83020998  0.73863616  0.71373552    -0.07500
C855        C  0.83100458  0.77146638  0.70950494     0.06100
C856        C  0.80469968  0.78959158  0.71885715    -0.02500
Br857      Br  0.80430664  0.83478728  0.71799268    -0.02200
H858        H  0.75759645  0.78866481  0.73722922     0.10000
H859        H  0.85037395  0.72435160  0.70731141     0.08000
Br860      Br  0.80554185  0.67894808  0.73195779    -0.02600
C861        C  0.69649292  0.60051678  0.80038392    -0.09200
C862        C  0.66357195  0.59770517  0.80237852     0.07000
C863        C  0.64449015  0.62344635  0.79335987    -0.03000
C864        C  0.65855183  0.65130150  0.78288576    -0.07500
C865        C  0.69144748  0.65430368  0.78160403     0.06100
C866        C  0.71054258  0.62850132  0.79031737    -0.02500
Br867      Br  0.75573064  0.62949232  0.78811595    -0.02200
H868        H  0.71145711  0.58093696  0.80712417     0.10000
H869        H  0.64369956  0.67094955  0.77604325     0.08000
Br870      Br  0.59925069  0.62164821  0.79306107    -0.02600
C871        C  0.71379940  0.13464826  0.77719470    -0.09200
C872        C  0.69187772  0.15951950  0.77489194     0.07000
C873        C  0.66164505  0.15484072  0.78838537    -0.03000
C874        C  0.65328564  0.12533035  0.80034073    -0.07500
C875        C  0.67458120  0.10005519  0.80055430     0.06100
C876        C  0.70549108  0.10522248  0.78961750    -0.02500
Br877      Br  0.73813387  0.07401723  0.79315980    -0.02200
H878        H  0.73778439  0.13787550  0.76950931     0.10000
H879        H  0.62974254  0.12219096  0.80964367     0.08000
Br880      Br  0.63104702  0.18762637  0.79459656    -0.02600
C881        C  0.66632593  0.28393430  0.79280471    -0.09200
C882        C  0.69636252  0.28450026  0.77922763     0.07000
C883        C  0.71432630  0.31227388  0.78141309    -0.03000
C884        C  0.70180019  0.33890120  0.79633722    -0.07500
C885        C  0.67129677  0.33873000  0.80938177     0.06100
C886        C  0.65346664  0.31058329  0.80739664    -0.02500
Br887      Br  0.61072614  0.30675338  0.82163915    -0.02200
H888        H  0.65274232  0.26237181  0.79222823     0.10000
H889        H  0.71616295  0.35993926  0.79772471     0.08000
Br890      Br  0.75596836  0.31543668  0.76440801    -0.02600
C891        C  0.59876743  0.20198830  0.70772402    -0.09200
C892        C  0.59799332  0.17011752  0.69919512     0.07000
C893        C  0.62583224  0.15209499  0.70199295    -0.03000
C894        C  0.65327030  0.16607450  0.71363294    -0.07500
C895        C  0.65348424  0.19737564  0.72461216     0.06100
C896        C  0.62586190  0.21574451  0.72035307    -0.02500
Br897      Br  0.62107159  0.25870233  0.73330432    -0.02200
H898        H  0.57778050  0.21634520  0.70514215     0.10000
H899        H  0.67437985  0.15179361  0.71522751     0.08000
Br900      Br  0.62767307  0.10761432  0.69399076    -0.02600
C901        C  0.28652480  0.20890245  0.68915636    -0.09200
C902        C  0.28390117  0.21145587  0.72190536     0.07000
C903        C  0.31016183  0.20353369  0.74074820    -0.03000
C904        C  0.33764268  0.19180101  0.72684103    -0.07500
C905        C  0.33970100  0.18737163  0.69420824     0.06100
C906        C  0.31395912  0.19676896  0.67522735    -0.02500
Br907      Br  0.31505809  0.19463371  0.63025086    -0.02200
H908        H  0.26660874  0.21511965  0.67440823     0.10000
H909        H  0.35722657  0.18518384  0.74183352     0.08000
Br910      Br  0.30988118  0.20799213  0.78562374    -0.02600
C911        C  0.27673495  0.82420875  0.79896861    -0.09200
C912        C  0.25783260  0.85110367  0.79488872     0.07000
C913        C  0.22764628  0.84774040  0.78128071    -0.03000
C914        C  0.21786908  0.81826173  0.77032524    -0.07500
C915        C  0.23771016  0.79186151  0.77249915     0.06100
C916        C  0.26678407  0.79470561  0.78838301    -0.02500
Br917      Br  0.29240979  0.75898424  0.79926333    -0.02200
H918        H  0.29950442  0.82608375  0.81039478     0.10000
H919        H  0.19488616  0.81607247  0.75935063     0.08000
Br920      Br  0.19788104  0.88174942  0.77874434    -0.02600
C921        C  0.26199371  0.12585545  0.80024696    -0.09200
C922        C  0.27602829  0.10749647  0.77680154     0.07000
C923        C  0.27462191  0.11767772  0.74542730    -0.03000
C924        C  0.25966437  0.14612400  0.73812649    -0.07500
C925        C  0.24692159  0.16549270  0.76179301     0.06100
C926        C  0.24743606  0.15449979  0.79309782    -0.02500
Br927      Br  0.23110880  0.17789597  0.82786755    -0.02200
H928        H  0.26266969  0.11798554  0.82444545     0.10000
H929        H  0.25868578  0.15351256  0.71382747     0.08000
Br930      Br  0.29523539  0.09523471  0.71217612    -0.02600
C931        C  0.19584422  0.26746480  0.36824462    -0.09200
C932        C  0.16352400  0.27452765  0.36840615     0.07000
C933        C  0.14611489  0.27017594  0.34051909    -0.03000
C934        C  0.16114126  0.25892094  0.31357910    -0.07500
C935        C  0.19292984  0.24910547  0.31397271     0.06100
C936        C  0.21062883  0.25480992  0.34170782    -0.02500
Br937      Br  0.25415532  0.24426863  0.34730196    -0.02200
H938        H  0.20970654  0.27109943  0.38933753     0.10000
H939        H  0.14716688  0.25636283  0.29246399     0.08000
Br940      Br  0.10111609  0.27478661  0.33827823    -0.02600
C941        C  0.16642016  0.29003319  0.64999871    -0.09200
C942        C  0.16381658  0.26807506  0.62545586     0.07000
C943        C  0.17645282  0.23753663  0.62970014    -0.03000
C944        C  0.19133594  0.22970388  0.65793692    -0.07500
C945        C  0.19328637  0.25146124  0.68256790     0.06100
C946        C  0.18088184  0.28195974  0.67839809    -0.02500
Br947      Br  0.17986895  0.31237779  0.71158604    -0.02200
H948        H  0.15673547  0.31350595  0.64729335     0.10000
H949        H  0.19997019  0.20590094  0.66137925     0.08000
Br950      Br  0.17097302  0.20414779  0.59981388    -0.02600
C951        C  0.12010627  0.16353044  0.70505576    -0.09200
C952        C  0.09647677  0.18508991  0.69664615     0.07000
C953        C  0.10232108  0.21758005  0.70029436    -0.03000
C954        C  0.13130439  0.22773785  0.71225717    -0.07500
C955        C  0.15519945  0.20621696  0.72042901     0.06100
C956        C  0.14915022  0.17373137  0.71693822    -0.02500
Br957      Br  0.17977584  0.14193602  0.72605097    -0.02200
H958        H  0.11595933  0.13849041  0.70232082     0.10000
H959        H  0.13524738  0.25275571  0.71510476     0.08000
Br960      Br  0.07298123  0.24939680  0.68699913    -0.02600
C961        C  0.80228100  0.22575502  0.71610185    -0.09200
C962        C  0.77839446  0.20305058  0.71882402     0.07000
C963        C  0.78382264  0.17251157  0.70704153    -0.03000
C964        C  0.81291520  0.16497263  0.69362354    -0.07500
C965        C  0.83697078  0.18750411  0.69108140     0.06100
C966        C  0.83122193  0.21840565  0.70202573    -0.02500
Br967      Br  0.86039270  0.25232486  0.69555294    -0.02200
H968        H  0.79800275  0.24960503  0.72414480     0.10000
H969        H  0.81669355  0.14124239  0.68504025     0.08000
Br970      Br  0.75204685  0.14054019  0.70639958    -0.02600
C971        C  0.33627278  0.17669251  0.26129684    -0.09200
C972        C  0.33928976  0.16777207  0.29297425     0.07000
C973        C  0.31366527  0.17314423  0.31344410    -0.03000
C974        C  0.28573661  0.18615272  0.30185240    -0.07500
C975        C  0.28262398  0.19488857  0.27038202     0.06100
C976        C  0.30824146  0.18998270  0.24984753    -0.02500
Br977      Br  0.30668291  0.20155463  0.20626811    -0.02200
H978        H  0.35568419  0.17295520  0.24522389     0.10000
H979        H  0.26575102  0.18833896  0.31737102     0.08000
Br980      Br  0.31532368  0.16547037  0.35783955    -0.02600
C981        C  0.62605185  0.15393029  0.30187428    -0.09200
C982        C  0.59845571  0.17161086  0.29674222     0.07000
C983        C  0.60097649  0.20047315  0.28015338    -0.03000
C984        C  0.63004395  0.20975042  0.26757337    -0.07500
C985        C  0.65716125  0.19137941  0.27183349     0.06100
C986        C  0.65521135  0.16386246  0.29024591    -0.02500
Br987      Br  0.69186000  0.14034142  0.30260209    -0.02200
H988        H  0.62511980  0.13222525  0.31517854     0.10000
H989        H  0.63151920  0.23155634  0.25442392     0.08000
Br990      Br  0.56693984  0.23005042  0.27604206    -0.02600
C991        C  0.78331158  0.18139921  0.30120071    -0.09200
C992        C  0.78233610  0.19347812  0.27048061     0.07000
C993        C  0.80977188  0.19137388  0.25179476    -0.03000
C994        C  0.83736925  0.17821069  0.26432215    -0.07500
C995        C  0.83849150  0.16711217  0.29536040     0.06100
C996        C  0.81108478  0.16908198  0.31395413    -0.02500
Br997      Br  0.81064694  0.15876043  0.35783210    -0.02200
H998        H  0.76243541  0.18220472  0.31578161     0.10000
H999        H  0.85828246  0.17704391  0.24979463     0.08000
Br1000     Br  0.81240148  0.20841137  0.21014689    -0.02600
C1001       C  0.68097783  0.33428234  0.22444518    -0.09200
C1002       C  0.66605467  0.33476145  0.19499344     0.07000
C1003       C  0.66447230  0.30644420  0.17755823    -0.03000
C1004       C  0.67687929  0.27856180  0.19017669    -0.07500
C1005       C  0.69233945  0.27829814  0.21941687     0.06100
C1006       C  0.69439392  0.30671112  0.23648500    -0.02500
Br1007     Br  0.71777551  0.31077089  0.27474911    -0.02200
H1008       H  0.68277328  0.35572371  0.23812142     0.10000
H1009       H  0.67541734  0.25706496  0.17652078     0.08000
Br1010     Br  0.64916987  0.30453114  0.13514182    -0.02600
C1011       C  0.74942481  0.65963775  0.18973620    -0.09200
C1012       C  0.73637050  0.69010960  0.18913451     0.07000
C1013       C  0.73707779  0.70726188  0.16076076    -0.03000
C1014       C  0.75019545  0.69360631  0.13393415    -0.13100
C1015       C  0.76219096  0.66273069  0.13434117     0.06100
C1016       C  0.76138423  0.64555187  0.16265387    -0.02500
Br1017     Br  0.77250541  0.60177726  0.16555206    -0.02200
H1018       H  0.74943620  0.64617313  0.21131312     0.10000
H1019       H  0.75041011  0.70711113  0.11236213     0.08000
Br1020     Br  0.71784929  0.74792751  0.15566358    -0.02600
C1021       C  0.68988770  0.62749442  0.24669873    -0.09200
C1022       C  0.68764712  0.65416965  0.22737020     0.07000
C1023       C  0.67082631  0.65159864  0.19881244    -0.03000
C1024       C  0.65985759  0.62228021  0.18864985    -0.07500
C1025       C  0.66389449  0.59510951  0.20701776     0.06100
C1026       C  0.67823202  0.59816068  0.23685579    -0.02500
Br1027     Br  0.68010461  0.56414137  0.26646173    -0.02200
H1028       H  0.70043295  0.62945732  0.26970061     0.10000
H1029       H  0.64771734  0.62087290  0.16629930     0.08000
Br1030     Br  0.65852656  0.68764003  0.17446288    -0.02600
C1031       C  0.83018394  0.75244568  0.27436969    -0.09200
C1032       C  0.82785454  0.77793199  0.29551334     0.07000
C1033       C  0.79741803  0.78768583  0.30514139    -0.03000
C1034       C  0.77079013  0.77117148  0.29483544    -0.07500
C1035       C  0.77340888  0.74566711  0.27410273     0.06100
C1036       C  0.80334295  0.73671356  0.26336303    -0.02500
Br1037     Br  0.80880868  0.70306368  0.23389098    -0.02200
H1038       H  0.85301554  0.74437336  0.26639811     0.10000
H1039       H  0.74762926  0.77910946  0.30207400     0.08000
Br1040     Br  0.78952505  0.82489228  0.32954724    -0.02600
C1041       C  0.77556267  0.25316699  0.81113584    -0.09200
C1042       C  0.74412396  0.24321742  0.81122832     0.07000
C1043       C  0.72775884  0.24161428  0.83983047    -0.03000
C1044       C  0.74221261  0.25189250  0.86742796    -0.07500
C1045       C  0.77328035  0.26335189  0.86735527     0.06100
C1046       C  0.79028410  0.26326548  0.83878601    -0.02500
Br1047     Br  0.83398362  0.27453084  0.83568100    -0.02200
H1048       H  0.78862601  0.25341521  0.78929076     0.10000
H1049       H  0.72881971  0.25117514  0.88903188     0.08000
Br1050     Br  0.68632066  0.22434812  0.84310886    -0.02600
C1051       C  0.75552441  0.23456188  0.12714811    -0.09200
C1052       C  0.76771732  0.26537065  0.12593200     0.07000
C1053       C  0.76560989  0.28436044  0.15309807    -0.03000
C1054       C  0.75361246  0.27174775  0.18088971    -0.07500
C1055       C  0.74090983  0.24119939  0.18199185     0.06100
C1056       C  0.74169602  0.22263454  0.15453637    -0.02500
Br1057     Br  0.72233010  0.18192378  0.15190448    -0.02200
H1058       H  0.75636069  0.21965696  0.10653088     0.10000
H1059       H  0.75334758  0.28642653  0.20169073     0.08000
Br1060     Br  0.77462284  0.32868267  0.15345050    -0.02600
C1061       C  0.69699500  0.09762489  0.20998811    -0.09200
C1062       C  0.66648414  0.09781230  0.19689020     0.07000
C1063       C  0.64958943  0.12658179  0.19639016    -0.03000
C1064       C  0.66313666  0.15382068  0.20901587    -0.07500
C1065       C  0.69315524  0.15338924  0.22301542     0.06100
C1066       C  0.71045379  0.12497497  0.22277348    -0.02500
Br1067     Br  0.75165953  0.12128227  0.24110101    -0.02200
H1068       H  0.71051659  0.07596502  0.21043763     0.10000
H1069       H  0.64979845  0.17559558  0.20828795     0.08000
Br1070     Br  0.60695868  0.13053520  0.18161022    -0.02600
C1071       C  0.68689858  0.83566097  0.21151427    -0.09200
C1072       C  0.65506843  0.83643688  0.20248881     0.07000
C1073       C  0.63762118  0.80811793  0.20367709    -0.03000
C1074       C  0.65214641  0.78020990  0.21381059    -0.07500
C1075       C  0.68360572  0.77974094  0.22458945     0.06100
C1076       C  0.70123752  0.80796345  0.22234388    -0.02500
Br1077     Br  0.74453473  0.81187513  0.23436622    -0.02200
H1078       H  0.70092222  0.85693714  0.21019716     0.10000
H1079       H  0.63825021  0.75881901  0.21437036     0.08000
Br1080     Br  0.59320034  0.80616511  0.19507865    -0.02600
C1081       C  0.19427453  0.68562772  0.13262074    -0.09200
C1082       C  0.16148527  0.68627534  0.12806569     0.07000
C1083       C  0.14213046  0.69824457  0.15219060    -0.03000
C1084       C  0.15563379  0.70816869  0.18051807    -0.07500
C1085       C  0.18825944  0.70587228  0.18577363     0.06100
C1086       C  0.20779805  0.69523877  0.16107417    -0.02500
Br1087     Br  0.25302281  0.69568578  0.16329683    -0.02200
H1088       H  0.20950589  0.67722967  0.11401357     0.10000
H1089       H  0.14040781  0.71698173  0.19895499     0.08000
Br1090     Br  0.09735890  0.70305909  0.14743968    -0.02600
C1091       C  0.17173404  0.67564432  0.81289120    -0.09200
C1092       C  0.18770713  0.70460766  0.81259803     0.07000
C1093       C  0.19017251  0.72177013  0.84083394    -0.03000
C1094       C  0.17677901  0.70988487  0.86842070    -0.07500
C1095       C  0.16105161  0.68072792  0.86886108     0.06100
C1096       C  0.15897410  0.66335813  0.84056957    -0.02500
Br1097     Br  0.14208868  0.62148684  0.83804849    -0.02200
H1098       H  0.16979675  0.66204277  0.79143980     0.10000
H1099       H  0.17892384  0.72356119  0.88978714     0.08000
Br1100     Br  0.21340172  0.76030600  0.84413372    -0.02600
C1101       C  0.75019106  0.71930527  0.67122795    -0.09200
C1102       C  0.73930359  0.69654876  0.69262579     0.07000
C1103       C  0.73950590  0.66454425  0.68345413    -0.03000
C1104       C  0.75214566  0.65595140  0.65442420    -0.07500
C1105       C  0.76366079  0.67872549  0.63363394     0.06100
C1106       C  0.76229598  0.71071687  0.64204569    -0.02500
Br1107     Br  0.77838964  0.74356588  0.61564372    -0.02200
H1108       H  0.74922109  0.74407667  0.67719275     0.10000
H1109       H  0.75274738  0.63127640  0.64788981     0.08000
Br1110     Br  0.72427159  0.63097017  0.70926177    -0.02600
C1111       C  0.76535745  0.66293847  0.34797313    -0.09200
C1112       C  0.76280995  0.68326101  0.37395367     0.07000
C1113       C  0.74846622  0.71309537  0.36941447    -0.03000
C1114       C  0.73506655  0.72068478  0.34022498    -0.07500
C1115       C  0.73799888  0.70028898  0.31450064     0.06100
C1116       C  0.75412278  0.67163860  0.31839809    -0.02500
Br1117     Br  0.76369947  0.64449714  0.28376906    -0.02200
H1118       H  0.77664669  0.64019198  0.35032237     0.10000
H1119       H  0.72355490  0.74326682  0.33721420     0.08000
Br1120     Br  0.75004727  0.74627555  0.40002222    -0.02600
C1121       C  0.25161150  0.81260000  0.25236250    -0.09200
C1122       C  0.23939727  0.79118519  0.23019731     0.07000
C1123       C  0.24193570  0.79890229  0.19799280    -0.03000
C1124       C  0.25787550  0.82616602  0.18873716    -0.07500
C1125       C  0.27067424  0.84693548  0.21085749     0.06100
C1126       C  0.26706072  0.84018473  0.24304407    -0.02500
Br1127     Br  0.28436318  0.86659282  0.27532140    -0.02200
H1128       H  0.24929801  0.80773724  0.27720666     0.10000
H1129       H  0.25982284  0.83148416  0.16393010     0.08000
Br1130     Br  0.22496409  0.77389071  0.16477692    -0.02600
C1131       C  0.25508735  0.10408765  0.23075239    -0.09200
C1132       C  0.26013316  0.10240244  0.19821127     0.07000
C1133       C  0.25264212  0.12895316  0.17956321    -0.03000
C1134       C  0.24258388  0.15688098  0.19391221    -0.07500
C1135       C  0.23958711  0.15894902  0.22660163     0.06100
C1136       C  0.24434867  0.13173218  0.24485695    -0.02500
Br1137     Br  0.23412133  0.12973778  0.28847643    -0.02200
H1138       H  0.25959618  0.08380890  0.24551640     0.10000
H1139       H  0.23757714  0.17732196  0.17949514     0.08000
Br1140     Br  0.25328968  0.12835690  0.13452883    -0.02600
C1141       C  0.15435835  0.25778089  0.84866415    -0.09200
C1142       C  0.17610014  0.26781595  0.87129416     0.07000
C1143       C  0.20850851  0.26751283  0.86414314    -0.03000
C1144       C  0.21851897  0.25735645  0.83454011    -0.07500
C1145       C  0.19663360  0.24808679  0.81145562     0.06100
C1146       C  0.16425414  0.24802791  0.81900038    -0.02500
Br1147     Br  0.13182165  0.23810940  0.78944914    -0.02200
H1148       H  0.12935342  0.25820410  0.85389572     0.10000
H1149       H  0.24345551  0.25784904  0.82903506     0.08000
Br1150     Br  0.23966689  0.28402631  0.89239885    -0.02600
C1151       C  0.15566729  0.27120784  0.15633597    -0.09200
C1152       C  0.17553819  0.26961674  0.13001718     0.07000
C1153       C  0.20657463  0.25783015  0.13407817    -0.03000
C1154       C  0.21658080  0.24735308  0.16368717    -0.07500
C1155       C  0.19656908  0.24896649  0.18973452     0.06100
C1156       C  0.16594965  0.26132708  0.18594766    -0.02500
Br1157     Br  0.13851042  0.26893595  0.22088195    -0.02200
H1158       H  0.13202693  0.28062952  0.15404310     0.10000
H1159       H  0.24044165  0.23863339  0.16661672     0.08000
Br1160     Br  0.23775861  0.25819276  0.10148880    -0.02600
C1161       C  0.27201666  0.33520504  0.78760989    -0.09200
C1162       C  0.24858712  0.35298486  0.80247276     0.07000
C1163       C  0.21718199  0.34240937  0.80156994    -0.03000
C1164       C  0.20995706  0.31396400  0.78658109    -0.07500
C1165       C  0.23369638  0.29511948  0.77298155     0.06100
C1166       C  0.26492109  0.30674756  0.77274074    -0.02500
Br1167     Br  0.29974201  0.28509433  0.75412831    -0.02200
H1168       H  0.29620247  0.34345616  0.78776942     0.10000
H1169       H  0.18569793  0.30601419  0.78645200     0.08000
Br1170     Br  0.18387473  0.36422304  0.82292074    -0.02600
C1171       C  0.24632270  0.61074431  0.77097209    -0.09200
C1172       C  0.25997405  0.61062976  0.80108805     0.07000
C1173       C  0.26194098  0.63932958  0.81778818    -0.03000
C1174       C  0.25028200  0.66697894  0.80433257    -0.07500
C1175       C  0.23533608  0.66682531  0.77488818     0.06100
C1176       C  0.23404008  0.63838183  0.75780513    -0.02500
Br1177     Br  0.21418619  0.63478679  0.71748513    -0.02200
H1178       H  0.24477003  0.58904205  0.75767049     0.10000
H1179       H  0.25194421  0.68873849  0.81754723     0.08000
Br1180     Br  0.27683999  0.64253467  0.86025904    -0.02600
C1181       C  0.30818219  0.76261067  0.31758331    -0.09200
C1182       C  0.33321195  0.76730750  0.29661253     0.07000
C1183       C  0.32830878  0.76126523  0.26433253    -0.03000
C1184       C  0.29868541  0.75113341  0.25379387    -0.07500
C1185       C  0.27347290  0.74738377  0.27476683     0.06100
C1186       C  0.27857874  0.75279365  0.30699438    -0.02500
Br1187     Br  0.24550521  0.75005466  0.33739655    -0.02200
H1188       H  0.31150202  0.76710192  0.34241396     0.10000
H1189       H  0.29489299  0.74738807  0.22889680     0.08000
Br1190     Br  0.35971848  0.76950609  0.23302169    -0.02600
C1191       C  0.59414545  0.73432922  0.29013093    -0.09200
C1192       C  0.59257655  0.76513755  0.30198029     0.07000
C1193       C  0.61957054  0.78448318  0.30013059    -0.03000
C1194       C  0.64750634  0.77240681  0.28772436    -0.07500
C1195       C  0.64887302  0.74190577  0.27502882     0.06100
C1196       C  0.62173986  0.72267860  0.27651228    -0.02500
Br1197     Br  0.61945108  0.68117807  0.25892940    -0.02200
H1198       H  0.57362226  0.71918506  0.29120918     0.10000
H1199       H  0.66812576  0.78744624  0.28698735     0.08000
Br1200     Br  0.61941862  0.82849494  0.31051209    -0.02600
C1201       C  0.74247870  0.24260356  0.62781886    -0.09200
C1202       C  0.75485817  0.27333053  0.62666690     0.07000
C1203       C  0.75470532  0.29155317  0.65451001    -0.03000
C1204       C  0.74532329  0.27790984  0.68287938    -0.07500
C1205       C  0.73490603  0.24670976  0.68422676     0.06100
C1206       C  0.73191247  0.22957339  0.65611989    -0.02500
Br1207     Br  0.71125629  0.18956043  0.65466973    -0.02200
H1208       H  0.74102873  0.22852138  0.60666748     0.10000
H1209       H  0.74589657  0.29187344  0.70400944     0.08000
Br1210     Br  0.76378202  0.33585856  0.65542866    -0.02600
C1211       C  0.78064224  0.27263210  0.34056300    -0.09200
C1212       C  0.75973499  0.27142430  0.36612668     0.07000
C1213       C  0.72994969  0.25708799  0.36151431    -0.03000
C1214       C  0.72283991  0.24237300  0.33290508    -0.07500
C1215       C  0.74405976  0.24290830  0.30767746     0.06100
C1216       C  0.77278606  0.25941572  0.31142023    -0.02500
Br1217     Br  0.80058331  0.26830727  0.27702503    -0.02200
H1218       H  0.80315898  0.28439839  0.34299210     0.10000
H1219       H  0.70012737  0.23101604  0.33013016     0.08000
Br1220     Br  0.69629376  0.25980630  0.39146229    -0.02600
loop_ 
_geom_bond_atom_site_label_1 
_geom_bond_atom_site_label_2 
_geom_bond_distance 
_geom_bond_site_symmetry_2 
_ccdc_geom_bond_type 
N1            N2   1.322       .  A
N1            C5   1.346       .  A
N1           Cu9   2.084       .  S
N2            C3   1.347       .  A
N2           Cu8   2.087       .  S
C3            C4   1.391       .  A
C3            H6   1.082       .  S
C4            C5   1.389       .  A
C4         C1212   1.494       .  S
C5            H7   1.080       .  S
Cu8          N11   2.086       .  S
Cu9          N19   2.084       .  S
Cu10         N12   2.071       .  S
Cu10         N18   2.071       .  S
N11          N12   1.323       .  A
N11          C15   1.346       .  A
N12          C13   1.346       .  A
C13          C14   1.382       .  A
C13          H16   1.082       .  S
C14          C15   1.385       .  A
C14         C740   1.471       .  S
C15          H17   1.082       .  S
N18          N19   1.321       .  A
N18          C22   1.343       .  A
N19          C20   1.347       .  A
C20          C21   1.390       .  A
C20          H23   1.082       .  S
C21          C22   1.387       .  A
C21        C1202   1.489       .  S
C22          H24   1.080       .  S
N25          N26   1.320       .  A
N25          C29   1.343       .  A
N25         Cu33   2.067       .  S
N26          C27   1.343       .  A
N26         Cu32   2.060       .  S
C27          C28   1.384       .  A
C27          H30   1.081       .  S
C28          C29   1.385       .  A
C28        C1192   1.479       .  S
C29          H31   1.082       .  S
Cu32         N35   2.060       .  S
Cu33         N43   2.068       .  S
Cu34         N36   2.081       .  S
Cu34         N42   2.081       .  S
N35          N36   1.323       .  A
N35          C39   1.343       .  A
N36          C37   1.345       .  A
C37          C38   1.384       .  A
C37          H40   1.082       .  S
C38          C39   1.379       .  A
C38         C725   1.466       .  S
C39          H41   1.082       .  S
N42          N43   1.322       .  A
N42          C46   1.345       .  A
N43          C44   1.345       .  A
C44          C45   1.384       .  A
C44          H47   1.081       .  S
C45          C46   1.387       .  A
C45        C1182   1.481       .  S
C46          H48   1.082       .  S
N49          N50   1.323       .  A
N49          C53   1.346       .  A
N49         Cu57   2.072       .  S
N50          C51   1.343       .  A
N50         Cu56   2.074       .  S
C51          C52   1.383       .  A
C51          H54   1.082       .  S
C52          C53   1.383       .  A
C52        C1162   1.474       .  S
C53          H55   1.082       .  S
Cu56         N59   2.074       .  S
Cu57         N67   2.073       .  S
Cu58         N60   2.076       .  S
Cu58         N66   2.076       .  S
N59          N60   1.322       .  A
N59          C63   1.346       .  A
N60          C61   1.346       .  A
C61          C62   1.384       .  A
C61          H64   1.082       .  S
C62          C63   1.384       .  A
C62         C711   1.471       .  S
C63          H65   1.082       .  S
N66          N67   1.322       .  A
N66          C70   1.344       .  A
N67          C68   1.344       .  A
C68          C69   1.386       .  A
C68          H71   1.082       .  S
C69          C70   1.386       .  A
C69        C1172   1.484       .  S
C70          H72   1.081       .  S
N73          N74   1.321       .  A
N73          C77   1.344       .  A
N73         Cu81   2.068       .  S
N74          C75   1.346       .  A
N74         Cu80   2.083       .  S
C75          C76   1.390       .  A
C75          H78   1.082       .  S
C76          C77   1.386       .  A
C76        C1152   1.489       .  S
C77          H79   1.080       .  S
Cu80         N83   2.082       .  S
Cu81         N91   2.068   1_554  S
Cu82         N84   2.073       .  S
Cu82         N90   2.072       .  S
N83          N84   1.323   1_554  A
N83          C87   1.345       .  A
N84          C85   1.347       .  A
C85          C86   1.384       .  A
C85          H88   1.082       .  S
C86          C87   1.384   1_556  A
C86         C181   1.472       .  S
C87          H89   1.082       .  S
N90          N91   1.322       .  A
N90          C94   1.343       .  A
N91          C92   1.345       .  A
C92          C93   1.382       .  A
C92          H95   1.082       .  S
C93          C94   1.382       .  A
C93        C1142   1.472       .  S
C94          H96   1.082       .  S
N97          N98   1.322       .  A
N97         C101   1.343       .  A
N97        Cu105   2.059       .  S
N98          C99   1.347       .  A
N98        Cu104   2.094       .  S
C99         C100   1.389       .  A
C99         H102   1.082       .  S
C100        C101   1.381       .  A
C100       C1125   1.479       .  S
C101        H103   1.082       .  S
Cu104       N107   2.095       .  S
Cu105       N115   2.060   1_565  S
Cu106       N108   2.077   1_545  S
Cu106       N114   2.076       .  S
N107        N108   1.324       .  A
N107        C111   1.347       .  A
N108        C109   1.347       .  A
C109        C110   1.383       .  A
C109        H112   1.082   1_565  S
C110        C111   1.386       .  A
C110        C218   1.476       .  S
C111        H113   1.082       .  S
N114        N115   1.320       .  A
N114        C118   1.345       .  A
N115        C116   1.342       .  A
C116        C117   1.385       .  A
C116        H119   1.082       .  S
C117        C118   1.388       .  A
C117       C1132   1.483       .  S
C118        H120   1.081       .  S
N121        N122   1.320       .  A
N121        C125   1.346       .  A
N121       Cu129   2.072       .  S
N122        C123   1.342       .  A
N122       Cu128   2.073       .  S
C123        C124   1.389       .  A
C123        H126   1.081       .  S
C124        C125   1.390       .  A
C124       C1112   1.491       .  S
C125        H127   1.080       .  S
Cu128       N131   2.072       .  S
Cu129       N139   2.072       .  S
Cu130       N132   2.064       .  S
Cu130       N138   2.065       .  S
N131        N132   1.322       .  A
N131        C135   1.345       .  A
N132        C133   1.344       .  A
C133        C134   1.382       .  A
C133        H136   1.082       .  S
C134        C135   1.383       .  A
C134        C737   1.466       .  S
C135        H137   1.082       .  S
N138        N139   1.323       .  A
N138        C142   1.343       .  A
N139        C140   1.344       .  A
C140        C141   1.381       .  A
C140        H143   1.082       .  S
C141        C142   1.381       .  A
C141       C1105   1.469       .  S
C142        H144   1.082       .  S
N145        N146   1.323       .  A
N145        C149   1.347       .  A
N145       Cu153   2.083   1_554  S
N146        C147   1.346       .  A
N146       Cu152   2.079       .  S
C147        C148   1.385       .  A
C147        H150   1.082       .  S
C148        C149   1.386       .  A
C148       C1082   1.481       .  S
C149        H151   1.082       .  S
Cu152       N155   2.079       .  S
Cu153       N163   2.083       .  S
Cu154       N156   2.075       .  S
Cu154       N162   2.075       .  S
N155        N156   1.322   1_554  A
N155        C159   1.347       .  A
N156        C157   1.345       .  A
C157        C158   1.383       .  A
C157        H160   1.082       .  S
C158        C159   1.385   1_556  A
C158        C179   1.472       .  S
C159        H161   1.082       .  S
N162        N163   1.321       .  A
N162        C166   1.345       .  A
N163        C164   1.346       .  A
C164        C165   1.389       .  A
C164        H167   1.082       .  S
C165        C166   1.388       .  A
C165       C1095   1.490       .  S
C166        H168   1.080       .  S
O169       Cu177   2.011   1_455  S
O169        C179   1.277   1_554  A
O170       Cu177   2.010       .  S
O170        C180   1.277   1_554  A
O171       Cu177   2.008   1_455  S
O171        C181   1.277   1_554  A
O172       Cu177   2.006       .  S
O172        C182   1.277   1_554  A
O173       Cu178   2.011       .  S
O173        C182   1.278       .  A
O174       Cu178   2.018   1_455  S
O174        C181   1.279       .  A
O175       Cu178   2.013       .  S
O175        C180   1.278       .  A
O176       Cu178   2.015   1_455  S
O176        C179   1.278       .  A
Cu177      Cu178   2.375   1_554  S
C180        C234   1.470       .  S
C182        C688   1.468       .  S
N183        N184   1.322       .  A
N183        C187   1.347       .  A
N183       Cu191   2.096       .  S
N184        C185   1.346       .  A
N184       Cu190   2.074       .  S
C185        C186   1.386       .  A
C185        H188   1.081       .  S
C186        C187   1.391       .  A
C186       C1072   1.491       .  S
C187        H189   1.082       .  S
Cu190       N193   2.073       .  S
Cu191       N201   2.095   1_565  S
Cu192       N194   2.075   1_545  S
Cu192       N200   2.075       .  S
N193        N194   1.322       .  A
N193        C197   1.346       .  A
N194        C195   1.345       .  A
C195        C196   1.383       .  A
C195        H198   1.082   1_565  S
C196        C197   1.383       .  A
C196        C220   1.469       .  S
C197        H199   1.082       .  S
N200        N201   1.322       .  A
N200        C204   1.345       .  A
N201        C202   1.348       .  A
C202        C203   1.390       .  A
C202        H205   1.082       .  S
C203        C204   1.387       .  A
C203       C1062   1.491       .  S
C204        H206   1.081       .  S
O207       Cu215   2.011       .  S
O207        C217   1.277       .  A
O208       Cu215   2.010   1_554  S
O208        C218   1.277       .  A
O209       Cu215   2.011       .  S
O209        C219   1.279       .  A
O210       Cu215   2.015   1_554  S
O210        C220   1.278       .  A
O211       Cu216   2.003   1_564  S
O211        C220   1.277       .  A
O212       Cu216   2.002       .  S
O212        C219   1.276   1_545  A
O213       Cu216   2.029   1_564  S
O213        C218   1.280       .  A
O214       Cu216   2.020   1_565  S
O214        C217   1.279       .  A
Cu215      Cu216   2.375   1_565  S
C217        C630   1.473       .  S
C219        C388   1.466       .  S
N221        N222   1.321       .  A
N221        C225   1.345       .  A
N221       Cu229   2.072   1_554  S
N222        C223   1.345       .  A
N222       Cu228   2.082       .  S
C223        C224   1.389       .  A
C223        H226   1.080       .  S
C224        C225   1.387       .  A
C224       C1052   1.489       .  S
C225        H227   1.082       .  S
Cu228       N231   2.082       .  S
Cu229       N239   2.072       .  S
Cu230       N232   2.067       .  S
Cu230       N238   2.066       .  S
N231        N232   1.322   1_554  A
N231        C235   1.346       .  A
N232        C233   1.345       .  A
C233        C234   1.382       .  A
C233        H236   1.082       .  S
C234        C235   1.384   1_556  A
C235        H237   1.082       .  S
N238        N239   1.321       .  A
N238        C242   1.343       .  A
N239        C240   1.343       .  A
C240        C241   1.387       .  A
C240        H243   1.082       .  S
C241        C242   1.385       .  A
C241       C1045   1.482       .  S
C242        H244   1.080       .  S
C245        H246   1.110       .  S
C245        C251   1.538       .  S
C245        C250   1.537       .  S
C245        C249   1.538       .  S
C247        H248   1.106       .  S
C247        C253   1.535       .  S
C247        C252   1.547       .  S
C247        C254   1.540       .  S
C249        C252   1.387       .  D
C249       C1195   1.489       .  S
C250        C253   1.367       .  D
C250       C1115   1.483       .  S
C251        C254   1.378       .  D
C251       C1022   1.496       .  S
C252       C1075   1.508       .  S
C253       C1035   1.483       .  S
C254       C1012   1.491       .  S
N255        N256   1.322       .  A
N255        C259   1.345       .  A
N255       Cu263   2.084       .  S
N256        C257   1.345       .  A
N256       Cu262   2.070       .  S
C257        C258   1.386       .  A
C257        H260   1.081       .  S
C258        C259   1.389       .  A
C258       C1002   1.487       .  S
C259        H261   1.082       .  S
Cu262       N265   2.070       .  S
Cu263       N273   2.085       .  S
Cu264       N266   2.072       .  S
Cu264       N272   2.073       .  S
N265        N266   1.322       .  A
N265        C269   1.344       .  A
N266        C267   1.346       .  A
C267        C268   1.383       .  A
C267        H270   1.082       .  S
C268        C269   1.382       .  A
C268        C712   1.468       .  S
C269        H271   1.082       .  S
N272        N273   1.322       .  A
N272        C276   1.343       .  A
N273        C274   1.347       .  A
C274        C275   1.389       .  A
C274        H277   1.081       .  S
C275        C276   1.386       .  A
C275       C1025   1.487       .  S
C276        H278   1.083       .  S
C279        H280   1.106       .  S
C279        C285   1.545       .  S
C279        C284   1.539       .  S
C279        C283   1.543       .  S
C281        H282   1.110       .  S
C281        C287   1.536       .  S
C281        C286   1.536       .  S
C281        C288   1.539       .  S
C283        C286   1.378       .  D
C283       C1055   1.495       .  S
C284        C287   1.376       .  D
C284       C1065   1.496       .  S
C285        C288   1.381       .  D
C285        C992   1.494       .  S
C286       C1005   1.495       .  S
C287        C985   1.488       .  S
C288       C1215   1.497       .  S
N289        N290   1.321       .  A
N289        C293   1.344       .  A
N289       Cu297   2.068       .  S
N290        C291   1.347       .  A
N290       Cu296   2.093       .  S
C291        C292   1.392       .  A
C291        H294   1.082       .  S
C292        C293   1.386       .  A
C292        C982   1.492       .  S
C293        H295   1.080       .  S
Cu296       N299   2.094       .  S
Cu297       N307   2.068       .  S
Cu298       N300   2.077       .  S
Cu298       N306   2.076       .  S
N299        N300   1.323       .  A
N299        C303   1.349       .  A
N300        C301   1.346       .  A
C301        C302   1.383       .  A
C301        H304   1.082       .  S
C302        C303   1.387       .  A
C302        C723   1.476       .  S
C303        H305   1.082       .  S
N306        N307   1.321       .  A
N306        C310   1.344       .  A
N307        C308   1.345       .  A
C308        C309   1.385       .  A
C308        H311   1.082       .  S
C309        C310   1.387       .  A
C309        C972   1.484       .  S
C310        H312   1.081       .  S
N313        N314   1.322       .  A
N313        C317   1.344       .  A
N313       Cu321   2.069   1_455  S
N314        C315   1.346       .  A
N314       Cu320   2.084       .  S
C315        C316   1.385       .  A
C315        H318   1.082       .  S
C316        C317   1.383       .  A
C316        C952   1.479       .  S
C317        H319   1.082       .  S
Cu320       N323   2.084   1_455  S
Cu321       N331   2.069       .  S
Cu322       N324   2.083       .  S
Cu322       N330   2.083       .  S
N323        N324   1.323       .  A
N323        C327   1.348       .  A
N324        C325   1.347       .  A
C325        C326   1.385       .  A
C325        H328   1.082       .  S
C326        C327   1.385       .  A
C326        C347   1.476       .  S
C327        H329   1.082   1_655  S
N330        N331   1.322       .  A
N330        C334   1.345       .  A
N331        C332   1.345       .  A
C332        C333   1.385       .  A
C332        H335   1.081       .  S
C333        C334   1.388       .  A
C333        C965   1.483       .  S
C334        H336   1.082       .  S
O337       Cu345   2.019   1_545  S
O337        C347   1.278       .  A
O338       Cu345   2.021       .  S
O338        C348   1.279       .  A
O339       Cu345   2.015   1_545  S
O339        C349   1.278       .  A
O340       Cu345   2.015       .  S
O340        C350   1.279       .  A
O341       Cu346   2.003       .  S
O341        C350   1.276       .  A
O342       Cu346   2.002   1_545  S
O342        C349   1.277       .  A
O343       Cu346   2.015       .  S
O343        C348   1.278       .  A
O344       Cu346   2.019   1_545  S
O344        C347   1.279       .  A
Cu345      Cu346   2.375       .  S
C348        C524   1.475       .  S
C349        C654   1.468       .  S
C350        C606   1.468       .  S
N351        N352   1.322       .  A
N351        C355   1.342       .  A
N351       Cu359   2.068       .  S
N352        C353   1.345       .  A
N352       Cu358   2.076       .  S
C353        C354   1.387       .  A
C353        H356   1.082       .  S
C354        C355   1.383       .  A
C354        C942   1.480       .  S
C355        H357   1.081       .  S
Cu358       N361   2.077       .  S
Cu359       N369   2.068       .  S
Cu360       N362   2.074       .  S
Cu360       N368   2.074       .  S
N361        N362   1.323       .  A
N361        C365   1.346       .  A
N362        C363   1.344       .  A
C363        C364   1.381       .  A
C363        H366   1.082       .  S
C364        C365   1.383       .  A
C364        C738   1.468       .  S
C365        H367   1.082       .  S
N368        N369   1.320       .  A
N368        C372   1.346       .  A
N369        C370   1.344       .  A
C370        C371   1.386       .  A
C370        H373   1.082       .  S
C371        C372   1.388       .  A
C371        C932   1.485       .  S
C372        H374   1.081       .  S
N375        N376   1.320       .  A
N375        C379   1.345       .  A
N375       Cu383   2.073       .  S
N376        C377   1.342       .  A
N376       Cu382   2.059       .  S
C377        C378   1.383       .  A
C377        H380   1.082       .  S
C378        C379   1.387       .  A
C378        C912   1.479       .  S
C379        H381   1.081       .  S
Cu382       N385   2.058       .  S
Cu383       N393   2.073   1_565  S
Cu384       N386   2.076   1_545  S
Cu384       N392   2.076       .  S
N385        N386   1.321       .  A
N385        C389   1.343       .  A
N386        C387   1.346   1_565  A
C387        C388   1.385   1_545  A
C387        H390   1.082       .  S
C388        C389   1.379       .  A
C389        H391   1.082       .  S
N392        N393   1.323       .  A
N392        C396   1.344       .  A
N393        C394   1.345       .  A
C394        C395   1.382       .  A
C394        H397   1.082       .  S
C395        C396   1.383       .  A
C395        C922   1.472       .  S
C396        H398   1.082       .  S
C399        H400   1.110       .  S
C399        C405   1.542       .  S
C399        C404   1.539       .  S
C399        C403   1.542       .  S
C401        H402   1.110       .  S
C401        C407   1.535       .  S
C401        C406   1.542       .  S
C401        C408   1.541       .  S
C403        C406   1.379       .  D
C403        C925   1.495       .  S
C404        C407   1.372       .  D
C404        C955   1.495       .  S
C405        C408   1.380       .  D
C405       C1145   1.490       .  S
C406        C902   1.492       .  S
C407        C945   1.479       .  S
C408       C1165   1.499       .  S
N409        N410   1.320       .  A
N409        C413   1.343       .  A
N409       Cu417   2.077       .  S
N410        C411   1.343       .  A
N410       Cu416   2.053       .  S
C411        C412   1.383       .  A
C411        H414   1.081       .  S
C412        C413   1.388       .  A
C412        C892   1.480       .  S
C413        H415   1.082       .  S
Cu416       N419   2.054       .  S
Cu417       N427   2.078       .  S
Cu418       N420   2.093       .  S
Cu418       N426   2.093       .  S
N419        N420   1.323       .  A
N419        C423   1.343       .  A
N420        C421   1.346       .  A
C421        C422   1.386       .  A
C421        H424   1.082       .  S
C422        C423   1.378       .  A
C422        C726   1.467       .  S
C423        H425   1.082       .  S
N426        N427   1.322       .  A
N426        C430   1.350       .  A
N427        C428   1.345       .  A
C428        C429   1.385       .  A
C428        H431   1.082       .  S
C429        C430   1.390       .  A
C429        C905   1.489       .  S
C430        H432   1.081       .  S
C433        H434   1.105       .  S
C433        C439   1.545       .  S
C433        C438   1.547       .  S
C433        C437   1.529       .  S
C435        H436   1.109       .  S
C435        C441   1.529       .  S
C435        C440   1.546       .  S
C435        C442   1.546       .  S
C437        C440   1.370       .  D
C437       C1205   1.486       .  S
C438        C441   1.369       .  D
C438        C882   1.489       .  S
C439        C442   1.390       .  D
C439        C895   1.500       .  S
C440        C962   1.486       .  S
C441       C1042   1.478       .  S
C442        C872   1.510       .  S
N443        N444   1.321       .  A
N443        C447   1.344       .  A
N443       Cu451   2.075       .  S
N444        C445   1.347       .  A
N444       Cu450   2.088       .  S
C445        C446   1.392       .  A
C445        H448   1.080       .  S
C446        C447   1.388       .  A
C446        C885   1.494       .  S
C447        H449   1.082       .  S
Cu450       N453   2.088       .  S
Cu451       N461   2.075       .  S
Cu452       N454   2.069       .  S
Cu452       N460   2.068       .  S
N453        N454   1.323       .  A
N453        C457   1.347       .  A
N454        C455   1.345       .  A
C455        C456   1.382       .  A
C455        H458   1.082       .  S
C456        C457   1.386       .  A
C456        C710   1.472       .  S
C457        H459   1.082       .  S
N460        N461   1.322       .  A
N460        C464   1.344       .  A
N461        C462   1.344       .  A
C462        C463   1.385       .  A
C462        H465   1.082       .  S
C463        C464   1.384       .  A
C463        C862   1.478       .  S
C464        H466   1.082       .  S
C467        H468   1.110       .  S
C467        C473   1.538       .  S
C467        C472   1.537       .  S
C467        C471   1.534       .  S
C469        H470   1.110       .  S
C469        C475   1.539       .  S
C469        C474   1.536       .  S
C469        C476   1.543       .  S
C471        C474   1.370       .  D
C471        C842   1.479       .  S
C472        C475   1.378       .  D
C472        C852   1.482       .  S
C473        C476   1.381       .  D
C473        C832   1.499       .  S
C474        C822   1.491       .  S
C475       C1102   1.492       .  S
C476        C865   1.483       .  S
N477        N478   1.322       .  A
N477        C481   1.344       .  A
N477       Cu485   2.062       .  S
N478        C479   1.348       .  A
N478       Cu484   2.095       .  S
C479        C480   1.389       .  A
C479        H482   1.082       .  S
C480        C481   1.381       .  A
C480        C825   1.480       .  S
C481        H483   1.082       .  S
Cu484       N487   2.095       .  S
Cu485       N495   2.062       .  S
Cu486       N488   2.073       .  S
Cu486       N494   2.072       .  S
N487        N488   1.323       .  A
N487        C491   1.348       .  A
N488        C489   1.347       .  A
C489        C490   1.383       .  A
C489        H492   1.082       .  S
C490        C491   1.387       .  A
C490        C724   1.475       .  S
C491        H493   1.082       .  S
N494        N495   1.320       .  A
N494        C498   1.342       .  A
N495        C496   1.344       .  A
C496        C497   1.385       .  A
C496        H499   1.081       .  S
C497        C498   1.387       .  A
C497        C812   1.481       .  S
C498        H500   1.082       .  S
C501        H502   1.110       .  S
C501        C507   1.536       .  S
C501        C506   1.537       .  S
C501        C505   1.535       .  S
C503        H504   1.109       .  S
C503        C509   1.538       .  S
C503        C508   1.534       .  S
C503        C510   1.536       .  S
C505        C508   1.374       .  D
C505        C792   1.483       .  S
C506        C509   1.378       .  D
C506        C915   1.483       .  S
C507        C510   1.378       .  D
C507       C1092   1.493       .  S
C508        C802   1.486       .  S
C509        C815   1.490       .  S
C510       C1175   1.489       .  S
N511        N512   1.322       .  A
N511        C515   1.347       .  A
N511       Cu519   2.071   1_455  S
N512        C513   1.343       .  A
N512       Cu518   2.077       .  S
C513        C514   1.383       .  A
C513        H516   1.082       .  S
C514        C515   1.383       .  A
C514        C782   1.476       .  S
C515        H517   1.082       .  S
Cu518       N521   2.078   1_455  S
Cu519       N529   2.071       .  S
Cu520       N522   2.086       .  S
Cu520       N528   2.086       .  S
N521        N522   1.323       .  A
N521        C525   1.347       .  A
N522        C523   1.347       .  A
C523        C524   1.385       .  A
C523        H526   1.082       .  S
C524        C525   1.384       .  A
C525        H527   1.082   1_655  S
N528        N529   1.321       .  A
N528        C532   1.346       .  A
N529        C530   1.343       .  A
C530        C531   1.388       .  A
C530        H533   1.081       .  S
C531        C532   1.391       .  A
C531       C1032   1.492       .  S
C532        H534   1.080       .  S
C535        H536   1.110       .  S
C535        C541   1.541       .  S
C535        C540   1.537       .  S
C535        C539   1.545       .  S
C537        H538   1.110       .  S
C537        C543   1.541       .  S
C537        C542   1.542       .  S
C537        C544   1.541       .  S
C539        C542   1.382       .  D
C539        C762   1.510       .  S
C540        C543   1.376       .  D
C540       C1185   1.486       .  S
C541        C544   1.377       .  D
C541        C772   1.486       .  S
C542        C785   1.488       .  S
C543       C1122   1.501       .  S
C544       C1085   1.490       .  S
N545        N546   1.322       .  A
N545        C549   1.345       .  A
N545       Cu553   2.068       .  S
N546        C547   1.344       .  A
N546       Cu552   2.075       .  S
C547        C548   1.384       .  A
C547        H550   1.082       .  S
C548        C549   1.383       .  A
C548        C755   1.477       .  S
C549        H551   1.082       .  S
Cu552       N555   2.075       .  S
Cu553       N563   2.069       .  S
Cu554       N556   2.086       .  S
Cu554       N562   2.086       .  S
N555        N556   1.323       .  A
N555        C559   1.346       .  A
N556        C557   1.348       .  A
C557        C558   1.386       .  A
C557        H560   1.082       .  S
C558        C559   1.383       .  A
C558        C709   1.474       .  S
C559        H561   1.082       .  S
N562        N563   1.323       .  A
N562        C566   1.347       .  A
N563        C564   1.344       .  A
C564        C565   1.382       .  A
C564        H567   1.082       .  S
C565        C566   1.386       .  A
C565        C775   1.478       .  S
C566        H568   1.082       .  S
N569        N570   1.322       .  A
N569        C573   1.345       .  A
N569       Cu577   2.081       .  S
N570        C571   1.346       .  A
N570       Cu576   2.078       .  S
C571        C572   1.388       .  A
C571        H574   1.082       .  S
C572        C573   1.387       .  A
C572        C805   1.488       .  S
C573        H575   1.080       .  S
Cu576       N579   2.077       .  S
Cu577       N587   2.082       .  S
Cu578       N580   2.089       .  S
Cu578       N586   2.089       .  S
N579        N580   1.323       .  A
N579        C583   1.347       .  A
N580        C581   1.347       .  A
C581        C582   1.386       .  A
C581        H584   1.082       .  S
C582        C583   1.383       .  A
C582        C739   1.475       .  S
C583        H585   1.082       .  S
N586        N587   1.323       .  A
N586        C590   1.346       .  A
N587        C588   1.348       .  A
C588        C589   1.386       .  A
C588        H591   1.082       .  S
C589        C590   1.386       .  A
C589        C765   1.484       .  S
C590        H592   1.082       .  S
N593        N594   1.319       .  A
N593        C597   1.344       .  A
N593       Cu601   2.057   1_455  S
N594        C595   1.341       .  A
N594       Cu600   2.062   1_455  S
C595        C596   1.385       .  A
C595        H598   1.082       .  S
C596        C597   1.384       .  A
C596        C795   1.476       .  S
C597        H599   1.081       .  S
Cu600       N603   2.063       .  S
Cu601       N611   2.058       .  S
Cu602       N604   2.084       .  S
Cu602       N610   2.084       .  S
N603        N604   1.323       .  A
N603        C607   1.344       .  A
N604        C605   1.346       .  A
C605        C606   1.385       .  A
C605        H608   1.082       .  S
C606        C607   1.380       .  A
C607        H609   1.082   1_655  S
N610        N611   1.322       .  A
N610        C614   1.347       .  A
N611        C612   1.341       .  A
C612        C613   1.381       .  A
C612        H615   1.082       .  S
C613        C614   1.389       .  A
C613        C855   1.480       .  S
C614        H616   1.081       .  S
N617        N618   1.321       .  A
N617        C621   1.347       .  A
N617       Cu625   2.076   1_545  S
N618        C619   1.344       .  A
N618       Cu624   2.078       .  S
C619        C620   1.387       .  A
C619        H622   1.082       .  S
C620        C621   1.387       .  A
C620        C875   1.486       .  S
C621        H623   1.081       .  S
Cu624       N627   2.077   1_545  S
Cu625       N635   2.075       .  S
Cu626       N628   2.080       .  S
Cu626       N634   2.079       .  S
N627        N628   1.322       .  A
N627        C631   1.346       .  A
N628        C629   1.347       .  A
C629        C630   1.385       .  A
C629        H632   1.082       .  S
C630        C631   1.383       .  A
C631        H633   1.082   1_565  S
N634        N635   1.323       .  A
N634        C638   1.344       .  A
N635        C636   1.346       .  A
C636        C637   1.384       .  A
C636        H639   1.081       .  S
C637        C638   1.386       .  A
C637        C845   1.480       .  S
C638        H640   1.082       .  S
N641        N642   1.322       .  A
N641        C645   1.345       .  A
N641       Cu649   2.076   1_455  S
N642        C643   1.344       .  A
N642       Cu648   2.076       .  S
C643        C644   1.386       .  A
C643        H646   1.082       .  S
C644        C645   1.386       .  A
C644        C742   1.483       .  S
C645        H647   1.081       .  S
Cu648       N651   2.076   1_455  S
Cu649       N659   2.076       .  S
Cu650       N652   2.071       .  S
Cu650       N658   2.071       .  S
N651        N652   1.323       .  A
N651        C655   1.347       .  A
N652        C653   1.343       .  A
C653        C654   1.381       .  A
C653        H656   1.082       .  S
C654        C655   1.384       .  A
C655        H657   1.082   1_655  S
N658        N659   1.321       .  A
N658        C662   1.345       .  A
N659        C660   1.345       .  A
C660        C661   1.385       .  A
C660        H663   1.082       .  S
C661        C662   1.385       .  A
C661        C995   1.481       .  S
C662        H664   1.081       .  S
C665        H666   1.102       .  S
C665        C671   1.548       .  S
C665        C670   1.554       .  S
C665        C669   1.537       .  S
C667        H668   1.111       .  S
C667        C673   1.523       .  S
C667        C672   1.543       .  S
C667        C674   1.539       .  S
C669        C672   1.380       .  D
C669        C752   1.504       .  S
C670        C673   1.370       .  D
C670        C975   1.485       .  S
C671        C674   1.385       .  D
C671        C935   1.510       .  S
C672       C1155   1.484       .  S
C673       C1135   1.483       .  S
C674        C745   1.500       .  S
N675        N676   1.320       .  A
N675        C679   1.341       .  A
N675       Cu683   2.055       .  S
N676        C677   1.345       .  A
N676       Cu682   2.071       .  S
C677        C678   1.388       .  A
C677        H680   1.081       .  S
C678        C679   1.383       .  A
C678       C1015   1.479       .  S
C679        H681   1.082       .  S
Cu682       N685   2.072       .  S
Cu683       N693   2.055   1_554  S
Cu684       N686   2.082       .  S
Cu684       N692   2.082       .  S
N685        N686   1.324   1_554  A
N685        C689   1.344       .  A
N686        C687   1.346       .  A
C687        C688   1.384       .  A
C687        H690   1.082       .  S
C688        C689   1.381   1_556  A
C689        H691   1.082       .  S
N692        N693   1.322       .  A
N692        C696   1.346       .  A
N693        C694   1.343       .  A
C694        C695   1.379       .  A
C694        H697   1.082       .  S
C695        C696   1.386       .  A
C695        C835   1.473       .  S
C696        H698   1.082       .  S
O699       Cu707   2.014       .  S
O699        C709   1.278       .  A
O700       Cu707   2.013   1_556  S
O700        C710   1.278       .  A
O701       Cu707   2.011   1_556  S
O701        C711   1.278       .  A
O702       Cu707   2.011       .  S
O702        C712   1.278       .  A
O703       Cu708   2.005       .  S
O703        C712   1.277       .  A
O704       Cu708   2.015   1_556  S
O704        C711   1.278       .  A
O705       Cu708   2.016   1_556  S
O705        C710   1.278       .  A
O706       Cu708   2.017       .  S
O706        C709   1.279       .  A
Cu707      Cu708   2.375       .  S
O713       Cu721   2.015   1_545  S
O713        C723   1.277       .  A
O714       Cu721   2.011       .  S
O714        C724   1.277       .  A
O715       Cu721   2.016       .  S
O715        C725   1.279       .  A
O716       Cu721   2.012   1_545  S
O716        C726   1.279       .  A
O717       Cu722   2.001   1_545  S
O717        C726   1.275       .  A
O718       Cu722   1.995       .  S
O718        C725   1.275       .  A
O719       Cu722   2.026       .  S
O719        C724   1.280       .  A
O720       Cu722   2.025   1_545  S
O720        C723   1.280       .  A
Cu721      Cu722   2.375       .  S
O727       Cu735   2.004       .  S
O727        C737   1.277       .  A
O728       Cu735   2.006       .  S
O728        C738   1.277   1_655  A
O729       Cu735   2.023       .  S
O729        C739   1.280   1_655  A
O730       Cu735   2.018       .  S
O730        C740   1.279       .  A
O731       Cu736   2.008       .  S
O731        C740   1.277       .  A
O732       Cu736   2.012       .  S
O732        C739   1.277   1_655  A
O733       Cu736   2.011       .  S
O733        C738   1.278   1_655  A
O734       Cu736   2.008       .  S
O734        C737   1.277       .  A
Cu735      Cu736   2.376       .  S
C741        C742   1.402       .  A
C741        C746   1.398       .  A
C741        H748   1.083       .  S
C742        C743   1.411       .  A
C743        C744   1.399       .  A
C743       Br750   1.920       .  S
C744        C745   1.405       .  A
C744        H749   1.079       .  S
C745        C746   1.417       .  A
C746       Br747   1.919       .  S
C751        C752   1.407       .  A
C751        C756   1.398       .  A
C751        H758   1.076       .  S
C752        C753   1.420       .  A
C753        C754   1.399       .  A
C753       Br760   1.913       .  S
C754        C755   1.398       .  A
C754        H759   1.084       .  S
C755        C756   1.407       .  A
C756       Br757   1.919       .  S
C761        C762   1.411       .  A
C761        C766   1.405       .  A
C761        H768   1.082       .  S
C762        C763   1.419       .  A
C763        C764   1.400       .  A
C763       Br770   1.912       .  S
C764        C765   1.398       .  A
C764        H769   1.084       .  S
C765        C766   1.408       .  A
C766       Br767   1.918       .  S
C771        C772   1.404       .  A
C771        C776   1.398       .  A
C771        H778   1.084       .  S
C772        C773   1.411       .  A
C773        C774   1.399       .  A
C773       Br780   1.920       .  S
C774        C775   1.404       .  A
C774        H779   1.083       .  S
C775        C776   1.409       .  A
C776       Br777   1.919       .  S
C781        C782   1.399       .  A
C781        C786   1.395       .  A
C781        H788   1.084       .  S
C782        C783   1.411       .  A
C783        C784   1.403       .  A
C783       Br790   1.917       .  S
C784        C785   1.405       .  A
C784        H789   1.084       .  S
C785        C786   1.411       .  A
C786       Br787   1.912       .  S
C791        C792   1.403       .  A
C791        C796   1.399       .  A
C791        H798   1.084       .  S
C792        C793   1.411       .  A
C793        C794   1.391       .  A
C793       Br800   1.914       .  S
C794        C795   1.401       .  A
C794        H799   1.083       .  S
C795        C796   1.412       .  A
C796       Br797   1.918       .  S
C801        C802   1.400       .  A
C801        C806   1.399       .  A
C801        H808   1.084       .  S
C802        C803   1.410       .  A
C803        C804   1.399       .  A
C803       Br810   1.921       .  S
C804        C805   1.406       .  A
C804        H809   1.083       .  S
C805        C806   1.416       .  A
C806       Br807   1.919       .  S
C811        C812   1.402       .  A
C811        C816   1.394       .  A
C811        H818   1.083       .  S
C812        C813   1.412       .  A
C813        C814   1.399       .  A
C813       Br820   1.919       .  S
C814        C815   1.405       .  A
C814        H819   1.084       .  S
C815        C816   1.413       .  A
C816       Br817   1.913       .  S
C821        C822   1.404       .  A
C821        C826   1.401       .  A
C821        H828   1.083       .  S
C822        C823   1.411       .  A
C823        C824   1.398       .  A
C823       Br830   1.907       .  S
C824        C825   1.400       .  A
C824        H829   1.084       .  S
C825        C826   1.411       .  A
C826       Br827   1.918       .  S
C831        C832   1.408       .  A
C831        C836   1.399       .  A
C831        H838   1.082       .  S
C832        C833   1.418       .  A
C833        C834   1.397       .  A
C833       Br840   1.913       .  S
C834        C835   1.397       .  A
C834        H839   1.084       .  S
C835        C836   1.407       .  A
C836       Br837   1.918       .  S
C841        C842   1.402       .  A
C841        C846   1.400       .  A
C841        H848   1.084       .  S
C842        C843   1.405       .  A
C843        C844   1.395       .  A
C843       Br850   1.914       .  S
C844        C845   1.404       .  A
C844        H849   1.083       .  S
C845        C846   1.413       .  A
C846       Br847   1.918       .  S
C851        C852   1.401       .  A
C851        C856   1.398       .  A
C851        H858   1.084       .  S
C852        C853   1.409       .  A
C853        C854   1.396       .  A
C853       Br860   1.920       .  S
C854        C855   1.405       .  A
C854        H859   1.083       .  S
C855        C856   1.412       .  A
C856       Br857   1.919       .  S
C861        C862   1.404       .  A
C861        C866   1.397       .  A
C861        H868   1.083       .  S
C862        C863   1.412       .  A
C863        C864   1.398       .  A
C863       Br870   1.919       .  S
C864        C865   1.402       .  A
C864        H869   1.084       .  S
C865        C866   1.410       .  A
C866       Br867   1.919       .  S
C871        C872   1.409       .  A
C871        C876   1.402       .  A
C871        H878   1.078       .  S
C872        C873   1.420       .  A
C873        C874   1.398       .  A
C873       Br880   1.920       .  S
C874        C875   1.401       .  A
C874        H879   1.083       .  S
C875        C876   1.409       .  A
C876       Br877   1.920       .  S
C881        C882   1.400       .  A
C881        C886   1.401       .  A
C881        H888   1.082       .  S
C882        C883   1.407       .  A
C883        C884   1.401       .  A
C883       Br890   1.915       .  S
C884        C885   1.409       .  A
C884        H889   1.083       .  S
C885        C886   1.417       .  A
C886       Br887   1.919       .  S
C891        C892   1.401       .  A
C891        C896   1.396       .  A
C891        H898   1.083       .  S
C892        C893   1.411       .  A
C893        C894   1.396       .  A
C893       Br900   1.920       .  S
C894        C895   1.408       .  A
C894        H899   1.082       .  S
C895        C896   1.417       .  A
C896       Br897   1.915       .  S
C901        C902   1.404       .  A
C901        C906   1.404       .  A
C901        H908   1.084       .  S
C902        C903   1.411       .  A
C903        C904   1.399       .  A
C903       Br910   1.921       .  S
C904        C905   1.405       .  A
C904        H909   1.083       .  S
C905        C906   1.414       .  A
C906       Br907   1.918       .  S
C911        C912   1.405       .  A
C911        C916   1.396       .  A
C911        H918   1.083       .  S
C912        C913   1.411       .  A
C913        C914   1.398       .  A
C913       Br920   1.919       .  S
C914        C915   1.403       .  A
C914        H919   1.084       .  S
C915        C916   1.410       .  A
C916       Br917   1.920       .  S
C921        C922   1.400       .  A
C921        C926   1.396       .  A
C921        H928   1.084       .  S
C922        C923   1.406       .  A
C923        C924   1.398       .  A
C923       Br930   1.918       .  S
C924        C925   1.409       .  A
C924        H929   1.082       .  S
C925        C926   1.413       .  A
C926       Br927   1.913       .  S
C931        C932   1.402       .  A
C931        C936   1.400       .  A
C931        H938   1.083       .  S
C932        C933   1.409       .  A
C933        C934   1.397       .  A
C933       Br940   1.920       .  S
C934        C935   1.410       .  A
C934        H939   1.081       .  S
C935        C936   1.419       .  A
C936       Br937   1.913       .  S
C941        C942   1.404       .  A
C941        C946   1.397       .  A
C941        H948   1.083       .  S
C942        C943   1.413       .  A
C943        C944   1.397       .  A
C943       Br950   1.918       .  S
C944        C945   1.400       .  A
C944        H949   1.084       .  S
C945        C946   1.408       .  A
C946       Br947   1.914       .  S
C951        C952   1.402       .  A
C951        C956   1.399       .  A
C951        H958   1.084       .  S
C952        C953   1.410       .  A
C953        C954   1.398       .  A
C953       Br960   1.920       .  S
C954        C955   1.406       .  A
C954        H959   1.082       .  S
C955        C956   1.410       .  A
C956       Br957   1.911       .  S
C961        C962   1.404       .  A
C961        C966   1.402       .  A
C961        H968   1.084       .  S
C962        C963   1.409       .  A
C963        C964   1.397       .  A
C963       Br970   1.913       .  S
C964        C965   1.403       .  A
C964        H969   1.083       .  S
C965        C966   1.413       .  A
C966       Br967   1.919       .  S
C971        C972   1.407       .  A
C971        C976   1.402       .  A
C971        H978   1.083       .  S
C972        C973   1.413       .  A
C973        C974   1.395       .  A
C973       Br980   1.920       .  S
C974        C975   1.397       .  A
C974        H979   1.080       .  S
C975        C976   1.411       .  A
C976       Br977   1.921       .  S
C981        C982   1.406       .  A
C981        C986   1.398       .  A
C981        H988   1.082       .  S
C982        C983   1.418       .  A
C983        C984   1.402       .  A
C983       Br990   1.919       .  S
C984        C985   1.400       .  A
C984        H989   1.084       .  S
C985        C986   1.409       .  A
C986       Br987   1.919       .  S
C991        C992   1.406       .  A
C991        C996   1.397       .  A
C991        H998   1.083       .  S
C992        C993   1.414       .  A
C993        C994   1.401       .  A
C993      Br1000   1.919       .  S
C994        C995   1.404       .  A
C994        H999   1.083       .  S
C995        C996   1.410       .  A
C996       Br997   1.920       .  S
C1001      C1002   1.404       .  A
C1001      C1006   1.398       .  A
C1001      H1008   1.083       .  S
C1002      C1003   1.414       .  A
C1003      C1004   1.401       .  A
C1003     Br1010   1.920       .  S
C1004      C1005   1.406       .  A
C1004      H1009   1.084       .  S
C1005      C1006   1.410       .  A
C1006     Br1007   1.913       .  S
C1011      C1012   1.406       .  A
C1011      C1016   1.395       .  A
C1011      H1018   1.082       .  S
C1012      C1013   1.411       .  A
C1013      C1014   1.397       .  A
C1013     Br1020   1.920       .  S
C1014      C1015   1.405       .  A
C1014      H1019   1.083       .  S
C1015      C1016   1.410       .  A
C1016     Br1017   1.920       .  S
C1021      C1022   1.403       .  A
C1021      C1026   1.403       .  A
C1021      H1028   1.079       .  S
C1022      C1023   1.413       .  A
C1023      C1024   1.397       .  A
C1023     Br1030   1.919       .  S
C1024      C1025   1.404       .  A
C1024      H1029   1.083       .  S
C1025      C1026   1.413       .  A
C1026     Br1027   1.919       .  S
C1031      C1032   1.411       .  A
C1031      C1036   1.400       .  A
C1031      H1038   1.082       .  S
C1032      C1033   1.416       .  A
C1033      C1034   1.399       .  A
C1033     Br1040   1.920       .  S
C1034      C1035   1.401       .  A
C1034      H1039   1.083       .  S
C1035      C1036   1.402       .  A
C1036     Br1037   1.915       .  S
C1041      C1042   1.399       .  A
C1041      C1046   1.399       .  A
C1041      H1048   1.084       .  S
C1042      C1043   1.405       .  A
C1043      C1044   1.394       .  A
C1043     Br1050   1.910       .  S
C1044      C1045   1.404       .  A
C1044      H1049   1.083       .  S
C1045      C1046   1.416       .  A
C1046     Br1047   1.919       .  S
C1051      C1052   1.407       .  A
C1051      C1056   1.402       .  A
C1051      H1058   1.083       .  S
C1052      C1053   1.413       .  A
C1053      C1054   1.396       .  A
C1053     Br1060   1.920       .  S
C1054      C1055   1.405       .  A
C1054      H1059   1.083       .  S
C1055      C1056   1.410       .  A
C1056     Br1057   1.917       .  S
C1061      C1062   1.407       .  A
C1061      C1066   1.403       .  A
C1061      H1068   1.083       .  S
C1062      C1063   1.415       .  A
C1063      C1064   1.398       .  A
C1063     Br1070   1.920       .  S
C1064      C1065   1.404       .  A
C1064      H1069   1.083       .  S
C1065      C1066   1.411       .  A
C1066     Br1067   1.918       .  S
C1071      C1072   1.403       .  A
C1071      C1076   1.401       .  A
C1071      H1078   1.083       .  S
C1072      C1073   1.413       .  A
C1073      C1074   1.402       .  A
C1073     Br1080   1.919       .  S
C1074      C1075   1.410       .  A
C1074      H1079   1.083       .  S
C1075      C1076   1.416       .  A
C1076     Br1077   1.912       .  S
C1081      C1082   1.403       .  A
C1081      C1086   1.400       .  A
C1081      H1088   1.083       .  S
C1082      C1083   1.411       .  A
C1083      C1084   1.399       .  A
C1083     Br1090   1.919       .  S
C1084      C1085   1.404       .  A
C1084      H1089   1.084       .  S
C1085      C1086   1.414       .  A
C1086     Br1087   1.919       .  S
C1091      C1092   1.404       .  A
C1091      C1096   1.399       .  A
C1091      H1098   1.084       .  S
C1092      C1093   1.409       .  A
C1093      C1094   1.400       .  A
C1093     Br1100   1.915       .  S
C1094      C1095   1.406       .  A
C1094      H1099   1.083       .  S
C1095      C1096   1.415       .  A
C1096     Br1097   1.919       .  S
C1101      C1102   1.407       .  A
C1101      C1106   1.394       .  A
C1101      H1108   1.082       .  S
C1102      C1103   1.413       .  A
C1103      C1104   1.397       .  A
C1103     Br1110   1.913       .  S
C1104      C1105   1.400       .  A
C1104      H1109   1.084       .  S
C1105      C1106   1.405       .  A
C1106     Br1107   1.918       .  S
C1111      C1112   1.407       .  A
C1111      C1116   1.395       .  A
C1111      H1118   1.082       .  S
C1112      C1113   1.417       .  A
C1113      C1114   1.403       .  A
C1113     Br1120   1.920       .  S
C1114      C1115   1.402       .  A
C1114      H1119   1.083       .  S
C1115      C1116   1.404       .  A
C1116     Br1117   1.915       .  S
C1121      C1122   1.408       .  A
C1121      C1126   1.400       .  A
C1121      H1128   1.083       .  S
C1122      C1123   1.415       .  A
C1123      C1124   1.398       .  A
C1123     Br1130   1.908       .  S
C1124      C1125   1.399       .  A
C1124      H1129   1.084       .  S
C1125      C1126   1.409       .  A
C1126     Br1127   1.918       .  S
C1131      C1132   1.405       .  A
C1131      C1136   1.394       .  A
C1131      H1138   1.083       .  S
C1132      C1133   1.414       .  A
C1133      C1134   1.400       .  A
C1133     Br1140   1.918       .  S
C1134      C1135   1.401       .  A
C1134      H1139   1.083       .  S
C1135      C1136   1.407       .  A
C1136     Br1137   1.910       .  S
C1141      C1142   1.399       .  A
C1141      C1146   1.395       .  A
C1141      H1148   1.084       .  S
C1142      C1143   1.408       .  A
C1143      C1144   1.399       .  A
C1143     Br1150   1.918       .  S
C1144      C1145   1.407       .  A
C1144      H1149   1.084       .  S
C1145      C1146   1.411       .  A
C1146     Br1147   1.909       .  S
C1151      C1152   1.405       .  A
C1151      C1156   1.398       .  A
C1151      H1158   1.083       .  S
C1152      C1153   1.417       .  A
C1153      C1154   1.402       .  A
C1153     Br1160   1.919       .  S
C1154      C1155   1.400       .  A
C1154      H1159   1.084       .  S
C1155      C1156   1.409       .  A
C1156     Br1157   1.918       .  S
C1161      C1162   1.399       .  A
C1161      C1166   1.396       .  A
C1161      H1168   1.084       .  S
C1162      C1163   1.406       .  A
C1163      C1164   1.399       .  A
C1163     Br1170   1.918       .  S
C1164      C1165   1.410       .  A
C1164      H1169   1.083       .  S
C1165      C1166   1.413       .  A
C1166     Br1167   1.912       .  S
C1171      C1172   1.406       .  A
C1171      C1176   1.400       .  A
C1171      H1178   1.083       .  S
C1172      C1173   1.413       .  A
C1173      C1174   1.396       .  A
C1173     Br1180   1.919       .  S
C1174      C1175   1.404       .  A
C1174      H1179   1.084       .  S
C1175      C1176   1.410       .  A
C1176     Br1177   1.917       .  S
C1181      C1182   1.403       .  A
C1181      C1186   1.397       .  A
C1181      H1188   1.083       .  S
C1182      C1183   1.413       .  A
C1183      C1184   1.401       .  A
C1183     Br1190   1.919       .  S
C1184      C1185   1.404       .  A
C1184      H1189   1.084       .  S
C1185      C1186   1.408       .  A
C1186     Br1187   1.914       .  S
C1191      C1192   1.403       .  A
C1191      C1196   1.397       .  A
C1191      H1198   1.083       .  S
C1192      C1193   1.411       .  A
C1193      C1194   1.395       .  A
C1193     Br1200   1.919       .  S
C1194      C1195   1.404       .  A
C1194      H1199   1.083       .  S
C1195      C1196   1.413       .  A
C1196     Br1197   1.916       .  S
C1201      C1202   1.407       .  A
C1201      C1206   1.401       .  A
C1201      H1208   1.083       .  S
C1202      C1203   1.416       .  A
C1203      C1204   1.399       .  A
C1203     Br1210   1.920       .  S
C1204      C1205   1.397       .  A
C1204      H1209   1.078       .  S
C1205      C1206   1.406       .  A
C1206     Br1207   1.912       .  S
C1211      C1212   1.406       .  A
C1211      C1216   1.401       .  A
C1211      H1218   1.082       .  S
C1212      C1213   1.415       .  A
C1213      C1214   1.401       .  A
C1213     Br1220   1.919       .  S
C1214      C1215   1.403       .  A
C1214      H1219   1.083       .  S
C1215      C1216   1.414       .  A
C1216     Br1217   1.920       .  S
