geometry optimzed in LAMMPS
_audit_creation_date              2020-11-30 
_audit_creation_method            'lammps2cif' 
_symmetry_space_group_name_H-M    'P1' 
_symmetry_Int_Tables_number       1 
_symmetry_cell_setting            triclinic 
loop_ 
_symmetry_equiv_pos_as_xyz 
  x,y,z 
_cell_length_a                    50.04181852 
_cell_length_b                    50.59343930507889 
_cell_length_c                    32.884015067923535 
_cell_angle_alpha                 90.33046766801424 
_cell_angle_beta                  90.09338492321358 
_cell_angle_gamma                 89.99918815168562 
loop_ 
_atom_site_label 
_atom_site_type_symbol 
_atom_site_fract_x 
_atom_site_fract_y 
_atom_site_fract_z 
_atom_site_charge 
O1          O  0.25426289  0.20317750  0.38159440    -0.85600
O2          O  0.25047202  0.20386795  0.61431258    -0.85800
O3          O  0.29680574  0.17682959  0.49149950    -0.87500
O4          O  0.21018767  0.17500808  0.49195988    -0.86200
O5          O  0.17747357  0.20648863  0.49122443    -0.85800
O6          O  0.32776534  0.20992007  0.48891956    -0.87200
O7          O  0.25082394  0.17431679  0.56094557    -0.85700
O8          O  0.25493666  0.17366217  0.43470018    -0.85300
Zr9        Zr  0.25295231  0.19762165  0.49742416     2.84300
O10         O  0.22562303  0.22317670  0.53941314    -1.07200
O11         O  0.27900885  0.22399144  0.45515754    -1.08000
C12         C  0.25520564  0.17930607  0.39670800     1.07500
C13         C  0.24991426  0.17985868  0.59917424     1.07400
C14         C  0.32085680  0.18545411  0.48638847     1.10400
C15         C  0.18559505  0.18239063  0.48912527     1.08200
H16         H  0.29058722  0.21237540  0.55694051     0.33700
O17         O  0.27878258  0.22376342  0.54097674    -1.28200
H18         H  0.21567910  0.21169894  0.43687806     0.33400
O19         O  0.22659303  0.22306213  0.45371967    -1.29900
O20         O  0.24933287  0.29579923  0.61426792    -0.85600
O21         O  0.25213261  0.29498984  0.37979149    -0.87100
O22         O  0.32681722  0.25031262  0.56145351    -0.85700
O23         O  0.17537991  0.24591131  0.55971761    -0.85800
O24         O  0.17737521  0.24881718  0.43076550    -0.85500
O25         O  0.32789190  0.25337673  0.43595406    -0.85300
O26         O  0.29320143  0.32470346  0.49443693    -0.85700
O27         O  0.20727999  0.32388334  0.49032982    -0.85100
O28         O  0.32600309  0.29342902  0.49718542    -0.86200
O29         O  0.17619183  0.29088008  0.49021890    -0.85300
O30         O  0.29757899  0.24967321  0.61492605    -0.85700
O31         O  0.29962451  0.25101332  0.38128592    -0.85500
O32         O  0.20767024  0.25100069  0.37836181    -0.85100
O33         O  0.20494220  0.24785266  0.61334562    -0.85500
O34         O  0.24818053  0.32545076  0.56134750    -0.85800
O35         O  0.24898943  0.32484829  0.43268919    -0.87100
Zr36       Zr  0.25128362  0.24979464  0.58406334     2.83100
Zr37       Zr  0.25302016  0.24956537  0.41042419     2.83500
Zr38       Zr  0.30369386  0.25106416  0.49826704     2.84100
Zr39       Zr  0.19940205  0.24882312  0.49606388     2.83400
Zr40       Zr  0.25040293  0.30218722  0.49725051     2.84200
O41         O  0.22558245  0.27503264  0.45405879    -1.07700
O42         O  0.27717779  0.27707085  0.54093799    -1.07200
C43         C  0.24787862  0.31974183  0.59945024     1.07400
C44         C  0.25000904  0.31893587  0.39456892     1.10100
C45         C  0.32171610  0.24981873  0.59961860     1.07600
C46         C  0.18087906  0.24602275  0.59803164     1.08000
C47         C  0.18341768  0.25014846  0.39277551     1.07600
C48         C  0.32344576  0.25269769  0.39754283     1.07100
C49         C  0.31790341  0.31749105  0.49417882     1.07500
C50         C  0.18309278  0.31535983  0.48703946     1.07000
H51         H  0.28900754  0.28821917  0.43896920     0.33700
O52         O  0.27779182  0.27678210  0.45496512    -1.28800
H53         H  0.21216851  0.28665080  0.55552218     0.33700
O54         O  0.22430410  0.27567330  0.53983144    -1.30200
N55         N  0.99778848  0.45999065  0.40252021    -0.35800
N56         N  0.04227033  0.99749348  0.40993753    -0.56300
N57         N  0.00172925  0.03840215  0.40710971    -0.35800
N58         N  0.45729348  0.99815172  0.38497738    -0.56300
C59         C  0.01807067  0.44396595  0.39101399     0.27800
C60         C  0.48064470  0.44626472  0.40531220     0.27800
C61         C  0.02419979  0.05249747  0.40073771     0.27800
C62         C  0.47756482  0.05306499  0.38734918     0.27800
C63         C  0.05516465  0.47385339  0.40961103     0.36400
C64         C  0.05672256  0.01856506  0.42235671     0.36400
C65         C  0.44563280  0.47881731  0.42438655     0.36400
C66         C  0.44187895  0.01937094  0.39402084     0.36400
C67         C  0.00779885  0.42075214  0.37475750    -0.21000
C68         C  0.48880148  0.42151618  0.39188585    -0.21000
C69         C  0.01765868  0.07706364  0.38505774    -0.21000
C70         C  0.48646537  0.07830883  0.37835016    -0.21000
C71         C  0.07936070  0.47944833  0.42844595    -0.22100
C72         C  0.07948296  0.01037933  0.44281146    -0.22100
C73         C  0.42141735  0.48558167  0.44204510    -0.22100
C74         C  0.41675047  0.01121114  0.40633237    -0.22100
C75         C  0.04522686  0.44835948  0.40069222    -0.17400
C76         C  0.45438124  0.45276137  0.41692786    -0.17400
C77         C  0.45050788  0.04596572  0.39220378    -0.17400
C78         C  0.04983527  0.04502413  0.41427773    -0.17400
H79         H  0.01895650  0.40378056  0.36400191     0.15500
H80         H  0.47624739  0.40465056  0.38498518     0.15500
H81         H  0.03116933  0.09310767  0.37806155     0.15500
H82         H  0.47441047  0.09526633  0.37032414     0.15500
H83         H  0.09396298  0.46555088  0.43983948     0.13700
H84         H  0.09479489  0.02261509  0.45658552     0.13700
H85         H  0.40583312  0.47241789  0.45240990     0.13700
H86         H  0.40014603  0.02352949  0.41566672     0.13700
H87         H  0.99955694  0.47660172  0.42112205     0.27000
H88         H  0.00046647  0.02132824  0.42438325     0.27000
O89         O  0.49908211  0.45719626  0.87950656    -0.85600
O90         O  0.50169910  0.45112043  0.11240229    -0.85800
O91         O  0.04240761  0.42716678  0.99643916    -0.87500
O92         O  0.45726921  0.42506692  0.99951304    -0.86200
O93         O  0.42525491  0.45714877  0.00010386    -0.85800
O94         O  0.07416695  0.45957213  0.99576223    -0.87200
O95         O  0.50416668  0.42273436  0.05757478    -0.85700
O96         O  0.49853830  0.42558325  0.92971370    -0.85300
Zr97       Zr  0.50001786  0.44752972  0.99502430     2.84300
O98         O  0.47341900  0.47204466  0.03974945    -1.07200
O99         O  0.02482749  0.47454044  0.95218599    -1.08000
C100        C  0.49846600  0.43271704  0.89221327     1.07500
C101        C  0.50404404  0.42767612  0.09609071     1.07400
C102        C  0.06690123  0.43521650  0.99744375     1.10400
C103        C  0.43276543  0.43287063  0.00127052     1.08200
H104        H  0.03660513  0.46339256  0.05382068     0.33700
O105        O  0.02493332  0.47453176  0.03789368    -1.28200
H106        H  0.46182213  0.46354392  0.93733094     0.33400
O107        O  0.47340826  0.47449953  0.95401954    -1.29900
O108        O  0.50014117  0.04186755  0.12347269    -0.85600
O109        O  0.50185850  0.04692516  0.88959889    -0.87100
O110        O  0.07465385  0.50081677  0.05823673    -0.85700
O111        O  0.42403715  0.49797301  0.06255503    -0.85800
O112        O  0.42404188  0.00034568  0.93873916    -0.85500
O113        O  0.07578536  0.00590922  0.93983840    -0.85300
O114        O  0.04314782  0.07525111  0.01409972    -0.85700
O115        O  0.45673191  0.07340927  0.01247434    -0.85100
O116        O  0.07544691  0.04341986  0.01292388    -0.86200
O117        O  0.42446030  0.04164828  0.00928360    -0.85300
O118        O  0.04568523  0.50060008  0.11224629    -0.85700
O119        O  0.04596349  0.00400300  0.88667695    -0.85500
O120        O  0.45468743  0.00136394  0.88655064    -0.85100
O121        O  0.45341559  0.49640091  0.11615582    -0.85500
O122        O  0.50130248  0.07280295  0.07228154    -0.85800
O123        O  0.50232690  0.07553876  0.94425577    -0.87100
Zr124      Zr  0.49985136  0.49718122  0.08556331     2.83100
Zr125      Zr  0.50096581  0.00104745  0.91781016     2.83500
Zr126      Zr  0.05046792  0.50118465  0.99523505     2.84100
Zr127      Zr  0.44739156  0.49944131  0.99857774     2.83400
Zr128      Zr  0.49939545  0.05099499  0.00737902     2.84200
O129        O  0.47336365  0.02654486  0.96188137    -1.07700
O130        O  0.02604402  0.02809331  0.04662076    -1.07200
C131        C  0.50114592  0.06614494  0.10989585     1.07400
C132        C  0.50294804  0.07054125  0.90573812     1.10100
C133        C  0.06979863  0.50033339  0.09657494     1.07600
C134        C  0.42922743  0.49738345  0.10091933     1.08000
C135        C  0.43023296  0.00046835  0.90070770     1.07600
C136        C  0.07013260  0.00603298  0.90163537     1.07100
C137        C  0.06757511  0.06746877  0.01735889     1.07500
C138        C  0.43219576  0.06578342  0.01357769     1.07000
H139        H  0.03794677  0.04042531  0.94589050     0.33700
O140        O  0.02627899  0.02892417  0.96122066    -1.28800
H141        H  0.46170198  0.03491549  0.06568248     0.33700
O142        O  0.47306384  0.02405857  0.04870025    -1.30200
N143        N  0.24927340  0.21275550  0.09856227    -0.35800
N144        N  0.29155962  0.25096583  0.09459150    -0.56300
N145        N  0.25001284  0.29161050  0.08902378    -0.35800
N146        N  0.20777664  0.25375846  0.09841106    -0.56300
C147        C  0.27066922  0.19712979  0.10572911     0.27800
C148        C  0.22727811  0.19862970  0.10782389     0.27800
C149        C  0.27228953  0.30628035  0.09347827     0.27800
C150        C  0.22899991  0.30775473  0.09602884     0.27800
C151        C  0.30616617  0.22897719  0.08748105     0.36400
C152        C  0.30635350  0.27141529  0.08126654     0.36400
C153        C  0.19279672  0.23220840  0.09025224     0.36400
C154        C  0.19325633  0.27479928  0.08616394     0.36400
C155        C  0.26223811  0.17289934  0.12031657    -0.21000
C156        C  0.23480511  0.17388116  0.12184545    -0.21000
C157        C  0.26546858  0.33195060  0.10427349    -0.21000
C158        C  0.23801515  0.33287786  0.10590803    -0.21000
C159        C  0.33081633  0.23556284  0.07130768    -0.22100
C160        C  0.33089788  0.26251753  0.06719438    -0.22100
C161        C  0.16839395  0.23967905  0.07377185    -0.22100
C162        C  0.16863625  0.26672925  0.07144182    -0.22100
C163        C  0.29717263  0.20302209  0.09454604    -0.17400
C164        C  0.20083464  0.20592044  0.09774617    -0.17400
C165        C  0.20220622  0.30116486  0.08786145    -0.17400
C166        C  0.29805755  0.29802715  0.08201117    -0.17400
H167        H  0.27453410  0.15596238  0.12759084     0.15500
H168        H  0.22179818  0.15774946  0.13037331     0.15500
H169        H  0.27886937  0.34851095  0.10876221     0.15500
H170        H  0.22601828  0.35027033  0.11189242     0.15500
H171        H  0.34678266  0.22232555  0.06239488     0.13700
H172        H  0.34702445  0.27413563  0.05464115     0.13700
H173        H  0.15224454  0.22701450  0.06369324     0.13700
H174        H  0.15279458  0.27896675  0.05935890     0.13700
H175        H  0.24933582  0.23003027  0.08174294     0.27000
H176        H  0.24919973  0.27324264  0.07482541     0.27000
C177        C  0.00311553  0.25370582  0.24708904    -0.01600
C178        C  0.24908237  0.99819102  0.25791575    -0.01600
C179        C  0.50017685  0.24909793  0.75660371    -0.01600
C180        C  0.24834339  0.49914407  0.74790046    -0.01600
C181        C  0.18156243  0.02015151  0.20708811    -0.27400
C182        C  0.17317558  0.50222400  0.18383854     0.06300
C183        C  0.19101720  0.48054000  0.18221078     0.25900
C184        C  0.21623953  0.48159008  0.20141779    -0.11800
C185        C  0.22410609  0.50337229  0.22585182    -0.25800
C186        C  0.20695906  0.02218031  0.22519159     0.36700
C187        C  0.14584408  0.50123628  0.16348832     0.06300
F188        F  0.18371852  0.45761955  0.16367643    -0.19600
H189        H  0.22875394  0.46413640  0.20026921     0.16100
F190        F  0.21531411  0.04669327  0.23607779    -0.23300
H191        H  0.16934199  0.03775380  0.20490356     0.17900
C192        C  0.12237824  0.51206551  0.18130097     0.25900
C193        C  0.09730466  0.51085107  0.16096372    -0.11800
C194        C  0.09492921  0.49900930  0.12225316    -0.25800
C195        C  0.11842661  0.48788317  0.10509759     0.36800
C196        C  0.14313517  0.48927196  0.12509216    -0.27500
F197        F  0.12382978  0.01733584  0.22836703    -0.19600
H198        H  0.08027845  0.01696075  0.18437268     0.16100
F199        F  0.11782285  0.47569468  0.06818892    -0.23300
H200        H  0.16047465  0.48133656  0.10964317     0.17900
C201        C  0.37122481  0.01272576  0.17996606    -0.27400
C202        C  0.35403650  0.49929084  0.16941027     0.06300
C203        C  0.35643918  0.50951593  0.12997162     0.25900
C204        C  0.38093567  0.50923099  0.10962566    -0.11800
C205        C  0.40444355  0.49882457  0.12723891    -0.25800
C206        C  0.39706808  0.01266108  0.16234436     0.36700
C207        C  0.32689107  0.49877552  0.18982638     0.06300
F208        F  0.33469976  0.51877408  0.10984918    -0.19600
H209        H  0.38119177  0.51687466  0.07900683     0.16100
F210        F  0.41491519  0.03150923  0.17370680    -0.23300
H211        H  0.36644312  0.02737762  0.20296953     0.17900
C212        C  0.31498282  0.97163690  0.20784663     0.25900
C213        C  0.29001787  0.97186973  0.22738898    -0.11800
C214        C  0.27474497  0.49823885  0.22763377    -0.25800
C215        C  0.28369195  0.52015372  0.20456842     0.36800
C216        C  0.30954509  0.52071103  0.18761638    -0.27500
F217        F  0.33056693  0.94978222  0.21085329    -0.19600
H218        H  0.28402033  0.95391026  0.24234027     0.16100
F219        F  0.26836833  0.54217614  0.20145445    -0.23300
H220        H  0.31613238  0.53870998  0.17308094     0.17900
C221        C  0.98455458  0.37742472  0.17520364    -0.27400
C222        C  0.00093376  0.35652133  0.16094364     0.06300
C223        C  0.52604827  0.35964331  0.13095337     0.25900
C224        C  0.52555839  0.38420596  0.11133568    -0.11800
C225        C  0.50696974  0.40390400  0.12232409    -0.25800
C226        C  0.98472998  0.40239914  0.15628966     0.36700
C227        C  0.00119381  0.33005599  0.18141156     0.06300
F228        F  0.54463097  0.34152880  0.11953632    -0.19600
H229        H  0.53951596  0.38771515  0.08680559     0.16100
F230        F  0.96762621  0.42146090  0.16929837    -0.23300
H231        H  0.97109543  0.37421857  0.20044520     0.17900
C232        C  0.00270441  0.32845767  0.22384891     0.25900
C233        C  0.00303447  0.30392455  0.24305536    -0.11800
C234        C  0.00300680  0.27965974  0.22106823    -0.25800
C235        C  0.50703849  0.27846473  0.17729616     0.36800
C236        C  0.50785774  0.30360085  0.15876174    -0.27500
F237        F  0.00487614  0.35067202  0.24698486    -0.19600
H238        H  0.00351493  0.30382291  0.27597950     0.16100
F239        F  0.50919414  0.25691770  0.15297955    -0.23300
H240        H  0.50894711  0.30459325  0.12592853     0.17900
C241        C  0.47724909  0.12807021  0.16349667    -0.27400
C242        C  0.50095929  0.14294644  0.16661673     0.06300
C243        C  0.02051342  0.13689575  0.15098232     0.25900
C244        C  0.02086238  0.11145076  0.13389397    -0.11800
C245        C  0.50173058  0.08943531  0.13775160    -0.25800
C246        C  0.47759676  0.10175196  0.14904180     0.36700
C247        C  0.50100955  0.17041152  0.18476782     0.06300
F248        F  0.04282296  0.15203448  0.14826058    -0.19600
H249        H  0.03882593  0.10474593  0.11862174     0.16100
F250        F  0.45410784  0.08878529  0.14369521    -0.23300
H251        H  0.45835997  0.13685925  0.17217713     0.17900
C252        C  0.48347449  0.19083987  0.17267715     0.25900
C253        C  0.48447839  0.21614181  0.19161082    -0.11800
C254        C  0.00279695  0.22613381  0.22433295    -0.25800
C255        C  0.01959399  0.20454328  0.23603806     0.36800
C256        C  0.01725413  0.17956357  0.21789193    -0.27500
F257        F  0.46551255  0.18648165  0.14240895    -0.19600
H258        H  0.47029607  0.23106450  0.18216565     0.16100
F259        F  0.03743786  0.20625964  0.26701717    -0.23300
H260        H  0.03061345  0.16397863  0.22768739     0.17900
C261        C  0.14514474  0.35045373  0.08728257    -0.27400
C262        C  0.14778647  0.36133854  0.04820302     0.06300
C263        C  0.16886980  0.35294724  0.02313730     0.25900
C264        C  0.18686908  0.33391334  0.03690528    -0.11800
C265        C  0.18380568  0.32259010  0.07544821    -0.25800
C266        C  0.16278979  0.33089172  0.10063568     0.36700
C267        C  0.12739277  0.37985660  0.03258280     0.06300
F268        F  0.17112627  0.36202385  0.98453144    -0.19600
H269        H  0.20276085  0.32729421  0.01696213     0.16100
F270        F  0.15903861  0.31966166  0.13757263    -0.23300
H271        H  0.12899711  0.35667767  0.10703950     0.17900
C272        C  0.10024306  0.37300526  0.03404311     0.25900
C273        C  0.08085996  0.39043049  0.01985735    -0.11800
C274        C  0.08803982  0.41526145  0.00442676    -0.25800
C275        C  0.11542254  0.42159810  0.00093967     0.36800
C276        C  0.13486772  0.40402202  0.01512155    -0.27500
F277        F  0.09241877  0.34936225  0.04923681    -0.19600
H278        H  0.06007732  0.38477288  0.02248306     0.16100
F279        F  0.12345659  0.44482005  0.98441094    -0.23300
H280        H  0.15575618  0.40948761  0.01318178     0.17900
C281        C  0.33069330  0.34863334  0.01471348    -0.27400
C282        C  0.35347000  0.35486571  0.03767821     0.06300
C283        C  0.35764454  0.34290563  0.07556725     0.25900
C284        C  0.33919354  0.32484350  0.09041141    -0.11800
C285        C  0.31669029  0.31826354  0.06727123    -0.25800
C286        C  0.31247180  0.33008778  0.02921917     0.36700
C287        C  0.37285342  0.37418944  0.02284264     0.06300
F288        F  0.37953764  0.34888015  0.09822231    -0.19600
H289        H  0.34257542  0.31566837  0.11965438     0.16100
F290        F  0.29115137  0.32312872  0.00588010    -0.23300
H291        H  0.32738141  0.35773100  0.98538870     0.17900
C292        C  0.39940127  0.36664878  0.01587980     0.25900
C293        C  0.41864809  0.38571959  0.00738793    -0.11800
C294        C  0.41171252  0.41264716  0.00618553    -0.25800
C295        C  0.38473148  0.41996656  0.01219941     0.36800
C296        C  0.36550175  0.40075821  0.02002749    -0.27500
F297        F  0.40677654  0.34089374  0.01860665    -0.19600
H298        H  0.43912068  0.37940205  0.00297502     0.16100
F299        F  0.37695549  0.44568031  0.01245981    -0.23300
H300        H  0.34507582  0.40674891  0.02593839     0.17900
C301        C  0.39873678  0.12901431  0.04896658    -0.27400
C302        C  0.37183482  0.12131617  0.05004148     0.06300
C303        C  0.36468637  0.09594851  0.03620464     0.25900
C304        C  0.38433471  0.07840454  0.02278489    -0.11800
C305        C  0.41145737  0.08578258  0.02281033    -0.25800
C306        C  0.41841017  0.11156442  0.03548592     0.36700
C307        C  0.35143718  0.14042241  0.06397029     0.06300
F308        F  0.33884171  0.08780529  0.03679193    -0.19600
H309        H  0.37826944  0.05877767  0.01322532     0.16100
F310        F  0.44419427  0.11990943  0.03585257    -0.23300
H311        H  0.40454646  0.14873197  0.05847722     0.17900
C312        C  0.35491949  0.15483675  0.10038810     0.25900
C313        C  0.33700445  0.17496134  0.11082153    -0.11800
C314        C  0.31533660  0.18069202  0.08531164    -0.25800
C315        C  0.31137087  0.16575294  0.04969921     0.36800
C316        C  0.32929694  0.14578513  0.03915713    -0.27500
F317        F  0.37569769  0.14952598  0.12566414    -0.19600
H318        H  0.34015890  0.18630150  0.13845141     0.16100
F319        F  0.29069806  0.17123806  0.02434147    -0.23300
H320        H  0.32645212  0.13519535  0.01075823     0.17900
C321        C  0.09988896  0.13295912  0.04390582    -0.27400
C322        C  0.12497573  0.12475612  0.05774138     0.06300
C323        C  0.13149766  0.09779171  0.05754075     0.25900
C324        C  0.11301502  0.07925932  0.04336067    -0.11800
C325        C  0.08777661  0.08739703  0.02912151    -0.25800
C326        C  0.08145446  0.11454994  0.02944897     0.36700
C327        C  0.14478066  0.14467231  0.06989168     0.06300
F328        F  0.15559485  0.08944264  0.07154887    -0.19600
H329        H  0.11834075  0.05851789  0.04422197     0.16100
F330        F  0.05757332  0.12347027  0.01553978    -0.23300
H331        H  0.09479725  0.15377219  0.04350521     0.17900
C332        C  0.16898035  0.14647693  0.04866710     0.25900
C333        C  0.18719010  0.16622589  0.05854436    -0.11800
C334        C  0.18154769  0.18441110  0.08969930    -0.25800
C335        C  0.15736465  0.18261988  0.11112925     0.36800
C336        C  0.13898646  0.16287469  0.10103419    -0.27500
F337        F  0.17444334  0.12985214  0.01721250    -0.19600
H338        H  0.20556400  0.16772364  0.04131434     0.16100
F339        F  0.15137918  0.20029002  0.14098203    -0.23300
H340        H  0.12019644  0.16182528  0.11726307     0.17900
C341        C  0.31424002  0.47418019  0.79951953    -0.27400
C342        C  0.32686183  0.99756974  0.81675738     0.06300
C343        C  0.31100730  0.02058539  0.81727498     0.25900
C344        C  0.28545200  0.02088762  0.79902816    -0.11800
C345        C  0.27509099  0.99866067  0.77781076    -0.25800
C346        C  0.28835812  0.47389060  0.78285525     0.36700
C347        C  0.35472193  0.99718664  0.83489525     0.06300
F348        F  0.32006685  0.04284273  0.83591272    -0.19600
H349        H  0.27438910  0.03924811  0.79936944     0.16100
F350        F  0.27676042  0.44999753  0.77634302    -0.23300
H351        H  0.32462268  0.45554779  0.80283415     0.17900
C352        C  0.36137512  0.47889398  0.85937104     0.25900
C353        C  0.38647333  0.47954478  0.87822580    -0.11800
C354        C  0.40640830  0.99794982  0.87304389    -0.25800
C355        C  0.39960308  0.01690851  0.84356612     0.36800
C356        C  0.37399621  0.01659977  0.82500623    -0.27500
F357        F  0.34340382  0.46061497  0.87197138    -0.19600
H358        H  0.39064345  0.46525344  0.90183098     0.16100
F359        F  0.41704149  0.03649839  0.83430812    -0.23300
H360        H  0.36909286  0.03177170  0.80313465     0.17900
C361        C  0.18738313  0.03076502  0.80835638    -0.27400
C362        C  0.17366537  0.00777932  0.81991629     0.06300
C363        C  0.18955370  0.47975316  0.81902261     0.25900
C364        C  0.21486117  0.47929499  0.80023378    -0.11800
C365        C  0.22487673  0.00466089  0.78046984    -0.25800
C366        C  0.21290045  0.02943338  0.79045635     0.36700
C367        C  0.14583082  0.00930033  0.83736745     0.06300
F368        F  0.17983001  0.45712655  0.83529507    -0.19600
H369        H  0.22546222  0.46067698  0.79854069     0.16100
F370        F  0.22566657  0.05260476  0.78332034    -0.23300
H371        H  0.17820789  0.04994758  0.81284039     0.17900
C372        C  0.14031586  0.02600142  0.87062076     0.25900
C373        C  0.11506021  0.02590242  0.88904850    -0.11800
C374        C  0.09422540  0.00939532  0.87494136    -0.25800
C375        C  0.10082674  0.48475017  0.84011091     0.36800
C376        C  0.12718654  0.48443185  0.82460970    -0.27500
F377        F  0.15985628  0.04133036  0.88703158    -0.19600
H378        H  0.11207834  0.03817526  0.91577849     0.16100
F379        F  0.08392567  0.46469064  0.83047288    -0.23300
H380        H  0.13293224  0.46872912  0.80389250     0.17900
C381        C  0.48817037  0.12474241  0.82817392    -0.27400
C382        C  0.00637994  0.14512019  0.83250061     0.06300
C383        C  0.02077135  0.12261194  0.81862430     0.25900
C384        C  0.01866793  0.09800980  0.83897102    -0.11800
C385        C  0.50561832  0.09452105  0.87955015    -0.25800
C386        C  0.48817111  0.09973802  0.84702754     0.36700
C387        C  0.00752733  0.17180803  0.81205954     0.06300
F388        F  0.03782247  0.12465105  0.78671230    -0.19600
H389        H  0.03054037  0.08140239  0.82857988     0.16100
F390        F  0.47012764  0.08126324  0.83494550    -0.23300
H391        H  0.47353546  0.12848041  0.80463279     0.17900
C392        C  0.00476597  0.17415222  0.76979252     0.25900
C393        C  0.00355745  0.19906897  0.75155306    -0.11800
C394        C  0.50284168  0.22289311  0.78180554    -0.25800
C395        C  0.50674749  0.22071686  0.82432681     0.36800
C396        C  0.50793677  0.19558263  0.84305855    -0.27500
F397        F  0.00156075  0.15239477  0.74595336    -0.19600
H398        H  0.00102893  0.19963929  0.71885722     0.16100
F399        F  0.51017476  0.24243057  0.84802697    -0.23300
H400        H  0.51029859  0.19476525  0.87574779     0.17900
C401        C  0.00962934  0.35911922  0.86056881    -0.27400
C402        C  0.49658133  0.35790978  0.82840467     0.06300
C403        C  0.47268662  0.37138662  0.83787204     0.25900
C404        C  0.47332088  0.39696132  0.85526920    -0.11800
C405        C  0.49769119  0.41001689  0.86302810    -0.25800
C406        C  0.01252093  0.38365732  0.88012386     0.36700
C407        C  0.49667869  0.33020103  0.81092844     0.06300
F408        F  0.44868316  0.35983259  0.83049137    -0.19600
H409        H  0.45470366  0.40617929  0.86432556     0.16100
F410        F  0.02853511  0.38493844  0.91348331    -0.23300
H411        H  0.02044204  0.34221738  0.87222219     0.17900
C412        C  0.00640652  0.32544795  0.76948101     0.25900
C413        C  0.00908758  0.29993787  0.75297028    -0.11800
C414        C  0.50008731  0.27684476  0.77905930    -0.25800
C415        C  0.48189643  0.28357337  0.81055065     0.36800
C416        C  0.48083487  0.30958648  0.82687571    -0.27500
F417        F  0.01845549  0.34604968  0.75062611    -0.19600
H418        H  0.02007942  0.29839745  0.72478723     0.16100
F419        F  0.46457979  0.26526953  0.82498171    -0.23300
H420        H  0.46744525  0.31361086  0.85197907     0.17900
C421        C  0.37106802  0.24764999  0.68980257    -0.27400
C422        C  0.39587443  0.25038883  0.66959973     0.06300
C423        C  0.39572414  0.25140561  0.62701813     0.25900
C424        C  0.37167582  0.25130709  0.60561142    -0.11800
C425        C  0.34659841  0.24949181  0.62543695    -0.25800
C426        C  0.34669402  0.24699028  0.66801777     0.36700
C427        C  0.42191082  0.25085096  0.69235533     0.06300
F428        F  0.41892421  0.25158179  0.60563270    -0.19600
H429        H  0.37305685  0.25249972  0.57281874     0.16100
F430        F  0.32347292  0.24359477  0.68853506    -0.23300
H431        H  0.37051266  0.24616507  0.72261554     0.17900
C432        C  0.44268484  0.26856478  0.68249340     0.25900
C433        C  0.46758978  0.26724825  0.70229483    -0.11800
C434        C  0.47278762  0.24851760  0.73303877    -0.25800
C435        C  0.45060254  0.23252026  0.74512224     0.36800
C436        C  0.42624898  0.23319427  0.72419348    -0.27500
F437        F  0.43868735  0.28786146  0.65463387    -0.19600
H438        H  0.48285962  0.28133457  0.69389315     0.16100
F439        F  0.45119495  0.21705930  0.77865998    -0.23300
H440        H  0.41048777  0.21985696  0.73344825     0.17900
C441        C  0.07646180  0.25314825  0.72696499    -0.27400
C442        C  0.07865794  0.24798334  0.68511156     0.06300
C443        C  0.05460063  0.24310587  0.66340910     0.25900
C444        C  0.02953841  0.24344327  0.68308265    -0.11800
C445        C  0.02728568  0.24940853  0.72489839    -0.25800
C446        C  0.05156362  0.25391194  0.74642058     0.36700
C447        C  0.10595484  0.24665832  0.66508484     0.06300
F448        F  0.05501906  0.23814518  0.62284430    -0.19600
H449        H  0.01211964  0.23830865  0.66532927     0.16100
F450        F  0.05129077  0.25885720  0.78703661    -0.23300
H451        H  0.09419809  0.25594746  0.74534383     0.17900
C452        C  0.12725128  0.26383074  0.67622202     0.25900
C453        C  0.15237860  0.26223609  0.65678284    -0.11800
C454        C  0.15682071  0.24412380  0.62498381    -0.25800
C455        C  0.13580955  0.22676694  0.61436555     0.36800
C456        C  0.11115590  0.22769767  0.63461642    -0.27500
F457        F  0.12354364  0.28320906  0.70433953    -0.19600
H458        H  0.16784301  0.27628268  0.66494306     0.16100
F459        F  0.13892088  0.20902312  0.58359130    -0.23300
H460        H  0.09605101  0.21341183  0.62606715     0.17900
C461        C  0.22771284  0.06201958  0.68515281    -0.27400
C462        C  0.25110950  0.07734021  0.68202203     0.06300
C463        C  0.27515850  0.06579354  0.69558901     0.25900
C464        C  0.27517525  0.04083984  0.71467026    -0.11800
C465        C  0.25117308  0.02656477  0.72161472    -0.25800
C466        C  0.22790350  0.03673740  0.70263047     0.36700
C467        C  0.25006653  0.10454195  0.66298786     0.06300
F468        F  0.29881546  0.07833972  0.68980050    -0.19600
H469        H  0.29424183  0.03292574  0.72410092     0.16100
F470        F  0.20445127  0.02332845  0.70428723    -0.23300
H471        H  0.20877723  0.06985202  0.67481840     0.17900
C472        C  0.23450017  0.10890711  0.62793037     0.25900
C473        C  0.23322856  0.13391949  0.61000666    -0.11800
C474        C  0.24774016  0.15567681  0.62549486    -0.25800
C475        C  0.26282627  0.15177945  0.66118154     0.36800
C476        C  0.26396990  0.12649764  0.67962680    -0.27500
F477        F  0.22147660  0.08862159  0.60935505    -0.19600
H478        H  0.22149320  0.13601130  0.58248436     0.16100
F479        F  0.27745688  0.17193159  0.67703918    -0.23300
H480        H  0.27587480  0.12406980  0.70686638     0.17900
C481        C  0.26659178  0.43917415  0.67753314    -0.27400
C482        C  0.24365439  0.42313062  0.67927394     0.06300
C483        C  0.22076342  0.43385066  0.69797001     0.25900
C484        C  0.22140994  0.45905107  0.71632264    -0.11800
C485        C  0.24539229  0.47388602  0.71959238    -0.25800
C486        C  0.26730855  0.46433191  0.69631631     0.36700
C487        C  0.24368455  0.39552001  0.66149337     0.06300
F488        F  0.19792279  0.41947307  0.70031348    -0.19600
H489        H  0.20288624  0.46645414  0.72870769     0.16100
F490        F  0.29031670  0.47843785  0.69419884    -0.23300
H491        H  0.28424835  0.43204240  0.66195030     0.17900
C492        C  0.22362204  0.38715330  0.63417320     0.25900
C493        C  0.22427619  0.36168487  0.61693039    -0.11800
C494        C  0.24473874  0.34354759  0.62631785    -0.25800
C495        C  0.26457202  0.35158469  0.65415079     0.36800
C496        C  0.26405680  0.37728270  0.67134709    -0.27500
F497        F  0.20413743  0.40408282  0.62217250    -0.19600
H498        H  0.20920982  0.35642602  0.59458894     0.16100
F499        F  0.28529869  0.33526402  0.66279986    -0.23300
H500        H  0.27983471  0.38308798  0.69212817     0.17900
C501        C  0.38225456  0.15498923  0.43676920    -0.27400
C502        C  0.37758482  0.12802119  0.44295877     0.06300
C503        C  0.35522137  0.12010377  0.46550006     0.25900
C504        C  0.33734224  0.13889835  0.48073308    -0.11800
C505        C  0.34164087  0.16600738  0.47430768    -0.25800
C506        C  0.36461881  0.17392037  0.45254165     0.36700
C507        C  0.39691832  0.10808716  0.42846507     0.06300
F508        F  0.35054373  0.09408473  0.47233069    -0.19600
H509        H  0.31993093  0.13217687  0.49723699     0.16100
F510        F  0.36970239  0.19982961  0.44529763    -0.23300
H511        H  0.39967888  0.16136136  0.41994789     0.17900
C512        C  0.39848320  0.10072973  0.38718702     0.25900
C513        C  0.41563567  0.08018055  0.37505633    -0.11800
C514        C  0.43168810  0.06734957  0.40392656    -0.25800
C515        C  0.43080153  0.07555103  0.44474354     0.36800
C516        C  0.41331429  0.09550643  0.45692872    -0.27500
F517        F  0.38319940  0.11310586  0.35895564    -0.19600
H518        H  0.41654507  0.07437667  0.34333705     0.16100
F519        F  0.44695514  0.06414382  0.47280701    -0.23300
H520        H  0.41251517  0.10120077  0.48871522     0.17900
C521        C  0.15242658  0.11620935  0.47007223    -0.27400
C522        C  0.12810165  0.12426707  0.45302070     0.06300
C523        C  0.12226996  0.15124350  0.44965904     0.25900
C524        C  0.14064248  0.16995881  0.46318491    -0.11800
C525        C  0.16530054  0.16209818  0.47983338    -0.25800
C526        C  0.17093827  0.13493920  0.48356672     0.36700
C527        C  0.10803008  0.10450521  0.44141969     0.06300
F528        F  0.09902224  0.15944136  0.43249524    -0.19600
H529        H  0.13576977  0.19065918  0.45955356     0.16100
F530        F  0.19415554  0.12643738  0.50041849    -0.23300
H531        H  0.15687015  0.09537892  0.47346507     0.17900
C532        C  0.11359223  0.08505962  0.41199862     0.25900
C533        C  0.09440489  0.06594385  0.40261762    -0.11800
C534        C  0.06968043  0.06600671  0.42271514    -0.31400
C535        C  0.06411543  0.08569978  0.45179170     0.36800
C536        C  0.08317241  0.10484029  0.46090051    -0.27500
F537        F  0.13736710  0.08478400  0.39217092    -0.19600
H538        H  0.09883403  0.05094090  0.37997833     0.16100
F539        F  0.04045330  0.08608390  0.47192527    -0.23300
H540        H  0.07876538  0.11967940  0.48381801     0.17900
C541        C  0.14667548  0.37921966  0.46034562    -0.27400
C542        C  0.12206957  0.36931676  0.44641126     0.06300
C543        C  0.11737232  0.34202383  0.44756240     0.25900
C544        C  0.13686069  0.32494227  0.46260206    -0.11800
C545        C  0.16174474  0.33456770  0.47622195    -0.25800
C546        C  0.16642117  0.36209387  0.47509174     0.36700
C547        C  0.10119544  0.38753367  0.43131132     0.06300
F548        F  0.09428186  0.33175587  0.43261618    -0.19600
H549        H  0.13268779  0.30394046  0.46212291     0.16100
F550        F  0.19007774  0.37251936  0.48756859    -0.23300
H551        H  0.15057122  0.40027919  0.45977755     0.17900
C552        C  0.07605071  0.38861696  0.45026119     0.25900
C553        C  0.05725943  0.40745860  0.43832801    -0.11800
C554        C  0.06309695  0.42528020  0.40704712    -0.25800
C555        C  0.08743128  0.42290655  0.38600968     0.36800
C556        C  0.10651451  0.40441239  0.39854178    -0.27500
F557        F  0.07024253  0.37245892  0.48184345    -0.19600
H558        H  0.03860397  0.40901314  0.45484778     0.16100
F559        F  0.09302462  0.43912858  0.35440648    -0.23300
H560        H  0.12557908  0.40344723  0.38304620     0.17900
C561        C  0.41976104  0.40064423  0.47838682    -0.27400
C562        C  0.39855604  0.39363563  0.45257320     0.06300
C563        C  0.39682823  0.40486145  0.41359007     0.25900
C564        C  0.41548083  0.42369618  0.40140451    -0.11800
C565        C  0.43625518  0.43100761  0.42764844    -0.25800
C566        C  0.43868201  0.41905238  0.46586181     0.36700
C567        C  0.37811559  0.37484417  0.46649166     0.06300
F568        F  0.37725278  0.39741481  0.38729310    -0.19600
H569        H  0.41362500  0.43279201  0.37179460     0.16100
F570        F  0.45893429  0.42584032  0.49139188    -0.23300
H571        H  0.42135917  0.39221688  0.50850057     0.17900
C572        C  0.38539566  0.34990018  0.48128605     0.25900
C573        C  0.36570856  0.33163723  0.49164595    -0.11800
C574        C  0.33844504  0.33805768  0.48785364    -0.25800
C575        C  0.33131144  0.36356711  0.47459417     0.36800
C576        C  0.35103770  0.38169232  0.46405690    -0.27500
F577        F  0.41149835  0.34280264  0.48405492    -0.19600
H578        H  0.37188185  0.31223116  0.50174930     0.16100
F579        F  0.30535064  0.37080805  0.47017158    -0.23300
H580        H  0.34515199  0.40105370  0.45334294     0.17900
C581        C  0.13058548  0.27275676  0.31644480    -0.27400
C582        C  0.10840650  0.25749738  0.32889060     0.06300
C583        C  0.11255552  0.23795516  0.35837230     0.25900
C584        C  0.13767436  0.23457960  0.37618402    -0.11800
C585        C  0.15957341  0.25054270  0.36549344    -0.25800
C586        C  0.15596823  0.26940945  0.33464324     0.36700
C587        C  0.08149519  0.26022158  0.30922078     0.06300
F588        F  0.09232028  0.22175881  0.36974913    -0.19600
H589        H  0.13986269  0.21977041  0.39959566     0.16100
F590        F  0.17643868  0.28543311  0.32362093    -0.23300
H591        H  0.12808553  0.28766935  0.29325217     0.17900
C592        C  0.05767779  0.26211156  0.33213582     0.25900
C593        C  0.03243850  0.26098580  0.31300260    -0.11800
C594        C  0.03021449  0.25690314  0.27061903    -0.25800
C595        C  0.05442969  0.25684561  0.24787468     0.36800
C596        C  0.07939909  0.25853297  0.26690339    -0.27500
F597        F  0.05878439  0.26493504  0.37317830    -0.19600
H598        H  0.01483116  0.26322353  0.33164178     0.16100
F599        F  0.05399849  0.25367666  0.20686477    -0.23300
H600        H  0.09726690  0.25714431  0.24845697     0.17900
C601        C  0.37411114  0.25070844  0.30923123    -0.27400
C602        C  0.39860276  0.25206842  0.33063085     0.06300
C603        C  0.39783889  0.25523872  0.37290969     0.25900
C604        C  0.37343548  0.25605151  0.39333482    -0.11800
C605        C  0.34866298  0.25363986  0.37258223    -0.25800
C606        C  0.34936828  0.25148850  0.32988091     0.36700
C607        C  0.42493010  0.25102118  0.30912557     0.06300
F608        F  0.42077650  0.25813721  0.39462482    -0.19600
H609        H  0.37425246  0.25841255  0.42605804     0.16100
F610        F  0.32637923  0.24994266  0.30810597    -0.23300
H611        H  0.37416253  0.24864323  0.27643957     0.17900
C612        C  0.43029694  0.26823478  0.27711488     0.25900
C613        C  0.45499169  0.26760620  0.25738433    -0.11800
C614        C  0.47626072  0.25064200  0.26975866    -0.25800
C615        C  0.47003885  0.23244052  0.30098394     0.36800
C616        C  0.44502452  0.23305808  0.32074196    -0.27500
F617        F  0.41170450  0.28611464  0.26504627    -0.19600
H618        H  0.45673890  0.28050333  0.23148724     0.16100
F619        F  0.48778494  0.21355102  0.31203529    -0.23300
H620        H  0.44114182  0.21906506  0.34482478     0.17900
C621        C  0.26785033  0.44071013  0.32521818    -0.27400
C622        C  0.24620955  0.42320873  0.31961726     0.06300
C623        C  0.22332393  0.43330035  0.30001849     0.25900
C624        C  0.22305627  0.45898031  0.28388061    -0.11800
C625        C  0.24620285  0.47515165  0.28353697    -0.25800
C626        C  0.26761743  0.46642421  0.30856809     0.36700
C627        C  0.24699644  0.39507749  0.33535548     0.06300
F628        F  0.20131834  0.41798624  0.29464207    -0.19600
H629        H  0.20447134  0.46561027  0.27078623     0.16100
F630        F  0.28949349  0.48188997  0.31407932    -0.23300
H631        H  0.28521637  0.43441983  0.34228477     0.17900
C632        C  0.26975905  0.37861820  0.33095471     0.25900
C633        C  0.27003914  0.35265654  0.34681493    -0.11800
C634        C  0.24772731  0.34244284  0.36744774    -0.25800
C635        C  0.22496489  0.35863271  0.37108763     0.36800
C636        C  0.22464028  0.38438084  0.35539291    -0.27500
F637        F  0.29194540  0.38768619  0.31189446    -0.19600
H638        H  0.28819431  0.34106647  0.34484181     0.16100
F639        F  0.20334532  0.34995515  0.39202981    -0.23300
H640        H  0.20705484  0.39637363  0.36058664     0.17900
C641        C  0.27665676  0.11146020  0.36216775    -0.27400
C642        C  0.25442975  0.10256105  0.33977189     0.06300
C643        C  0.23340965  0.12060474  0.33255666     0.25900
C644        C  0.23469570  0.14671821  0.34778134    -0.11800
C645        C  0.25692424  0.15538859  0.37037258    -0.25800
C646        C  0.27792493  0.13736830  0.37724724     0.36700
C647        C  0.25401361  0.07482450  0.32317938     0.06300
F648        F  0.21156798  0.11300379  0.31096886    -0.19600
H649        H  0.21774206  0.15974599  0.34367390     0.16100
F650        F  0.29923078  0.14449516  0.40046884    -0.23300
H651        H  0.29290218  0.09804945  0.36901819     0.17900
C652        C  0.27630917  0.06466774  0.30240540     0.25900
C653        C  0.27568865  0.03939127  0.28493569    -0.11800
C654        C  0.25226328  0.02366669  0.28519992    -0.25800
C655        C  0.23141480  0.03241199  0.31128313     0.36800
C656        C  0.23197695  0.05793976  0.32884646    -0.27500
F657        F  0.29861195  0.07958129  0.29752240    -0.19600
H658        H  0.29385838  0.03266860  0.27064648     0.16100
F659        F  0.20963605  0.01700203  0.31760540    -0.23300
H660        H  0.21507220  0.06457199  0.34671367     0.17900
O661        O  0.25355801  0.70478787  0.38541171    -0.85600
O662        O  0.24784992  0.70255857  0.61829688    -0.85800
O663        O  0.29401074  0.67592756  0.50426375    -0.87500
O664        O  0.20844738  0.67676529  0.49453766    -0.86200
O665        O  0.17572901  0.70812071  0.49309279    -0.85800
O666        O  0.32582954  0.70820504  0.50686059    -0.87200
O667        O  0.24710893  0.67399534  0.56367377    -0.85700
O668        O  0.25462242  0.67529123  0.43832338    -0.85300
Zr669      Zr  0.25138096  0.69853308  0.50203376     2.84300
O670        O  0.22411103  0.72374172  0.54453542    -1.07200
O671        O  0.27857228  0.72478590  0.46134795    -1.08000
C672        C  0.25482087  0.68082651  0.40023944     1.07500
C673        C  0.24632002  0.67881163  0.60204183     1.07400
C674        C  0.31846381  0.68384890  0.50534396     1.10400
C675        C  0.18388774  0.68397643  0.49074962     1.08200
H676        H  0.28816625  0.71235424  0.56395161     0.33700
O677        O  0.27694810  0.72393936  0.54733659    -1.28200
H678        H  0.21458699  0.71329138  0.44118446     0.33400
O679        O  0.22550096  0.72433825  0.45854762    -1.29900
O680        O  0.24716734  0.79631979  0.62098771    -0.85600
O681        O  0.25143185  0.79696733  0.38814110    -0.87100
O682        O  0.32537132  0.75303407  0.57208995    -0.85700
O683        O  0.17490314  0.74520785  0.56426752    -0.85800
O684        O  0.17648775  0.75232264  0.43678109    -0.85500
O685        O  0.32878265  0.75093703  0.44351443    -0.85300
O686        O  0.29511014  0.82447372  0.49945053    -0.85700
O687        O  0.20854578  0.82469064  0.50327224    -0.85100
O688        O  0.32733341  0.79261033  0.50158682    -0.86200
O689        O  0.17641372  0.79266877  0.50199397    -0.85300
O690        O  0.29455026  0.75061342  0.62384840    -0.85700
O691        O  0.29951293  0.75052279  0.38937702    -0.85500
O692        O  0.20644856  0.75124484  0.38411311    -0.85100
O693        O  0.20289693  0.74583112  0.61945712    -0.85500
O694        O  0.25039657  0.82588804  0.56827579    -0.85800
O695        O  0.24901136  0.82586695  0.44230886    -0.87100
Zr696      Zr  0.24937276  0.74960675  0.59082891     2.83100
Zr697      Zr  0.25247573  0.75073105  0.41654850     2.83500
Zr698      Zr  0.30379881  0.75072280  0.50635596     2.84100
Zr699      Zr  0.19878625  0.75013568  0.50136141     2.83400
Zr700      Zr  0.25157421  0.80230730  0.50509583     2.84200
O701        O  0.22579349  0.77657023  0.46074501    -1.07700
O702        O  0.27704377  0.77648519  0.54923025    -1.07200
C703        C  0.24779644  0.82041710  0.60613414     1.07400
C704        C  0.24935281  0.82065019  0.40404795     1.10100
C705        C  0.31889826  0.75264125  0.60999306     1.07600
C706        C  0.17920160  0.74420455  0.60281664     1.08000
C707        C  0.18206801  0.75175763  0.39862690     1.07600
C708        C  0.32355000  0.75087398  0.40511526     1.07100
C709        C  0.31975025  0.81680897  0.49750536     1.07500
C710        C  0.18398238  0.81703127  0.50183549     1.07000
H711        H  0.28951824  0.78776063  0.44635853     0.33700
O712        O  0.27814832  0.77653538  0.46236344    -1.28800
H713        H  0.21195384  0.78725678  0.56197232     0.33700
O714        O  0.22388942  0.77621720  0.54619107    -1.30200
N715        N  0.99919493  0.95927974  0.41013458    -0.35800
N716        N  0.04234493  0.49646131  0.40019699    -0.56300
N717        N  0.00332048  0.53844775  0.40433263    -0.35800
N718        N  0.45977286  0.50073612  0.41559357    -0.56300
C719        C  0.02046530  0.94314861  0.40552317     0.27800
C720        C  0.47871204  0.94369715  0.38233781     0.27800
C721        C  0.02608444  0.55198466  0.39753288     0.27800
C722        C  0.47908872  0.55537461  0.41489321     0.27800
C723        C  0.05550551  0.97592136  0.42304999     0.36400
C724        C  0.05802920  0.51639808  0.41361088     0.36400
C725        C  0.44244216  0.97650233  0.39327916     0.36400
C726        C  0.44507436  0.52138025  0.42902936     0.36400
C727        C  0.01179878  0.91792355  0.39532851    -0.21000
C728        C  0.48764258  0.91897991  0.37003929    -0.21000
C729        C  0.02005058  0.57728800  0.38438815    -0.21000
C730        C  0.48662486  0.58044767  0.40258174    -0.21000
C731        C  0.07876518  0.98327342  0.44310696    -0.22100
C732        C  0.08116918  0.50650859  0.43098354    -0.22100
C733        C  0.41714573  0.98402994  0.40608815    -0.22100
C734        C  0.42112493  0.51260189  0.44520757    -0.22100
C735        C  0.04679324  0.94968540  0.41706100    -0.17400
C736        C  0.45171712  0.95010669  0.39023605    -0.17400
C737        C  0.45312020  0.54801245  0.42651082    -0.17400
C738        C  0.05166408  0.54335601  0.40943049    -0.17400
H739        H  0.02396365  0.90041912  0.39123865     0.15500
H740        H  0.47551060  0.90221781  0.36105771     0.15500
H741        H  0.03397431  0.59308595  0.37792254     0.15500
H742        H  0.47371153  0.59722570  0.39712218     0.15500
H743        H  0.09339392  0.97048785  0.45720405     0.13700
H744        H  0.09745619  0.51757903  0.44449020     0.13700
H745        H  0.40084803  0.97134347  0.41522886     0.13700
H746        H  0.40528399  0.52430141  0.45858373     0.13700
H747        H  0.99950887  0.97775198  0.42395584     0.27000
H748        H  0.00197543  0.52083019  0.42028597     0.27000
O749        O  0.50138532  0.95584038  0.88466720    -0.85600
O750        O  0.49745953  0.94907927  0.11696861    -0.85800
O751        O  0.04249261  0.92872648  0.99671565    -0.87500
O752        O  0.45648849  0.92503894  0.99609547    -0.86200
O753        O  0.42484650  0.95739795  0.99978885    -0.85800
O754        O  0.07501941  0.96037585  0.99657764    -0.87200
O755        O  0.49682396  0.92157647  0.06124970    -0.85700
O756        O  0.49929113  0.92494268  0.93564406    -0.85300
Zr757      Zr  0.49945381  0.94706436  0.00033161     2.84300
O758        O  0.47260313  0.97173944  0.04462134    -1.07200
O759        O  0.02587725  0.97594104  0.96026310    -1.08000
C760        C  0.49995695  0.93154602  0.89801398     1.07500
C761        C  0.49658168  0.92561631  0.09981371     1.07400
C762        C  0.06707333  0.93622949  0.99487541     1.10400
C763        C  0.43206253  0.93308370  0.99703423     1.08200
H764        H  0.03773588  0.96419923  0.06102601     0.33700
O765        O  0.02610869  0.97571423  0.04565794    -1.28200
H766        H  0.46234841  0.96356782  0.94201281     0.33400
O767        O  0.47367831  0.97440938  0.95928363    -1.29900
O768        O  0.49865078  0.54172542  0.11951096    -0.85600
O769        O  0.50172232  0.54924330  0.88584630    -0.87100
O770        O  0.07491800  0.99917959  0.06746956    -0.85700
O771        O  0.42298149  0.99706198  0.06716894    -0.85800
O772        O  0.42375613  0.50010787  0.93423026    -0.85500
O773        O  0.07410324  0.50290562  0.93175387    -0.85300
O774        O  0.03987728  0.57405976  0.01006562    -0.85700
O775        O  0.45681884  0.57348539  0.00904404    -0.85100
O776        O  0.07271895  0.54292319  0.00615147    -0.86200
O777        O  0.42478601  0.54134994  0.00604739    -0.85300
O778        O  0.04575481  0.00058799  0.12123683    -0.85700
O779        O  0.04435851  0.50113375  0.87840895    -0.85500
O780        O  0.45364772  0.50324000  0.88138475    -0.85100
O781        O  0.45229617  0.99636993  0.12116914    -0.85500
O782        O  0.49749060  0.57275697  0.06864048    -0.85800
O783        O  0.50122213  0.57670102  0.94154343    -0.87100
Zr784      Zr  0.49876285  0.99634095  0.09149176     2.83100
Zr785      Zr  0.49956277  0.50244170  0.91244802     2.83500
Zr786      Zr  0.05207977  0.00213708  0.00325752     2.84100
Zr787      Zr  0.44711508  0.99953981  0.00334122     2.83400
Zr788      Zr  0.49973058  0.55160406  0.00329308     2.84200
O789        O  0.47290400  0.52752599  0.95793091    -1.07700
O790        O  0.02432134  0.52669486  0.03898150    -1.07200
C791        C  0.49713118  0.56595122  0.10620707     1.07400
C792        C  0.50250246  0.57269070  0.90295773     1.10100
C793        C  0.06970989  0.99870221  0.10574839     1.07600
C794        C  0.42821830  0.99624441  0.10556690     1.08000
C795        C  0.42948277  0.50133313  0.89605371     1.07600
C796        C  0.06849808  0.50246841  0.89358630     1.07100
C797        C  0.06433366  0.56648573  0.01362692     1.07500
C798        C  0.43241096  0.56548184  0.01070825     1.07000
H799        H  0.03584755  0.53965414  0.93751994     0.33700
O800        O  0.02445820  0.52786544  0.95295929    -1.28800
H801        H  0.46202520  0.53468854  0.06067083     0.33700
O802        O  0.47350958  0.52413868  0.04340879    -1.30200
N803        N  0.24699427  0.71113372  0.07483839    -0.35800
N804        N  0.28927287  0.74964127  0.06938148    -0.56300
N805        N  0.24837657  0.78919924  0.05972004    -0.35800
N806        N  0.20630156  0.75132499  0.06884443    -0.56300
C807        C  0.26859078  0.69661123  0.08482349     0.27800
C808        C  0.22533723  0.69786810  0.08805094     0.27800
C809        C  0.27004140  0.80434759  0.06659135     0.27800
C810        C  0.22692319  0.80510273  0.06273933     0.27800
C811        C  0.30332593  0.72753587  0.06143803     0.36400
C812        C  0.30419958  0.76986824  0.05577928     0.36400
C813        C  0.19079727  0.72968473  0.06585779     0.36400
C814        C  0.19192224  0.77136865  0.05330750     0.36400
C815        C  0.26070395  0.67390680  0.10486327    -0.21000
C816        C  0.23326720  0.67472113  0.10697787    -0.21000
C817        C  0.26225528  0.83010051  0.07518257    -0.21000
C818        C  0.23486865  0.83061692  0.07242134    -0.21000
C819        C  0.32758113  0.73371386  0.04350616    -0.22100
C820        C  0.32816749  0.76071309  0.04001127    -0.22100
C821        C  0.16608551  0.73608305  0.04949785    -0.22100
C822        C  0.16683463  0.76266111  0.04139734    -0.22100
C823        C  0.29477187  0.70205680  0.07198193    -0.17400
C824        C  0.19873736  0.70440758  0.07846505    -0.17400
C825        C  0.20091595  0.79761028  0.05189267    -0.17400
C826        C  0.29631034  0.79646005  0.05790943    -0.17400
H827        H  0.27336682  0.65809224  0.11571759     0.15500
H828        H  0.22052696  0.65957983  0.11965568     0.15500
H829        H  0.27507216  0.84701623  0.08046456     0.15500
H830        H  0.22232426  0.84793673  0.07555826     0.15500
H831        H  0.34312085  0.72022416  0.03376820     0.13700
H832        H  0.34418423  0.77220998  0.02687449     0.13700
H833        H  0.14939394  0.72297489  0.04373411     0.13700
H834        H  0.15078358  0.77424093  0.02844369     0.13700
H835        H  0.24689488  0.72673924  0.05442826     0.27000
H836        H  0.24843294  0.77055327  0.04631004     0.27000
C837        C  0.00139223  0.74987484  0.24471044    -0.01600
C838        C  0.24902241  0.50051799  0.25566034    -0.01600
C839        C  0.50093534  0.75183753  0.75343992    -0.01600
C840        C  0.24933321  0.00157095  0.75011322    -0.01600
C841        C  0.18268406  0.52548181  0.20251060    -0.27400
C842        C  0.17213139  0.99609849  0.19111073     0.06300
C843        C  0.19001327  0.97451417  0.19042603     0.25900
C844        C  0.21562836  0.97670051  0.20780318    -0.11800
C845        C  0.22359748  0.99958317  0.22969389    -0.25800
C846        C  0.20794145  0.52646011  0.22179705     0.36700
C847        C  0.14463849  0.99444995  0.17245630     0.06300
F848        F  0.18237996  0.95076194  0.17489780    -0.19600
H849        H  0.22838074  0.95939771  0.20768057     0.16100
F850        F  0.21685371  0.55057285  0.23380667    -0.23300
H851        H  0.17081532  0.54335338  0.20118192     0.17900
C852        C  0.12192539  0.00625785  0.19079751     0.25900
C853        C  0.09698232  0.00675858  0.17047643    -0.11800
C854        C  0.09408223  0.99510425  0.13179853    -0.25800
C855        C  0.11638570  0.98165302  0.11516295     0.36800
C856        C  0.14116395  0.98181104  0.13477622    -0.27500
F857        F  0.12354394  0.52377199  0.21847213    -0.19600
H858        H  0.07996621  0.51986416  0.17498769     0.16100
F859        F  0.11449636  0.96860061  0.07904534    -0.23300
H860        H  0.15794110  0.97263932  0.11949467     0.17900
C861        C  0.37751394  0.48911653  0.18788549    -0.27400
C862        C  0.35162623  0.99415897  0.16789084     0.06300
C863        C  0.35858274  0.97540740  0.13804446     0.25900
C864        C  0.38407074  0.97552487  0.12028203    -0.11800
C865        C  0.40372363  0.99409635  0.13177323    -0.25800
C866        C  0.40246830  0.48896733  0.16718216     0.36700
C867        C  0.32419529  0.99389620  0.18666518     0.06300
F868        F  0.34028843  0.95752504  0.12475268    -0.19600
H869        H  0.38827605  0.96135961  0.09628634     0.16100
F870        F  0.42421796  0.47835265  0.18559208    -0.23300
H871        H  0.37653210  0.48117536  0.21834761     0.17900
C872        C  0.31687843  0.47576078  0.20815013     0.25900
C873        C  0.29113406  0.47531397  0.22556992    -0.11800
C874        C  0.27369314  0.99477622  0.22821743    -0.25800
C875        C  0.28128138  0.01537344  0.20134123     0.36800
C876        C  0.30655043  0.01532650  0.18228172    -0.27500
F877        F  0.33169072  0.45329638  0.20833483    -0.19600
H878        H  0.28440848  0.45667402  0.23759940     0.16100
F879        F  0.26526865  0.03676352  0.19636520    -0.23300
H880        H  0.31243389  0.03220277  0.16427389     0.17900
C881        C  0.98144168  0.87272409  0.16704098    -0.27400
C882        C  0.00454643  0.85662584  0.16684293     0.06300
C883        C  0.50805828  0.87467351  0.18451151     0.25900
C884        C  0.50582331  0.89916564  0.16427396    -0.11800
C885        C  0.49590897  0.90046873  0.12428871    -0.25800
C886        C  0.98146318  0.89820517  0.14988940     0.36700
C887        C  0.00385906  0.82914419  0.18509425     0.06300
F888        F  0.51838302  0.87429518  0.22267037    -0.19600
H889        H  0.51259519  0.91698845  0.17947641     0.16100
F890        F  0.95824592  0.91202046  0.14812624    -0.23300
H891        H  0.96288597  0.86516963  0.17922672     0.17900
C892        C  0.99150811  0.82494637  0.22279036     0.25900
C893        C  0.99052892  0.79972530  0.24007510    -0.11800
C894        C  0.00107339  0.77683245  0.22054015    -0.25800
C895        C  0.51449192  0.77736655  0.18629841     0.36800
C896        C  0.51453329  0.80249462  0.16768821    -0.27500
F897        F  0.98129919  0.84557156  0.24430151    -0.19600
H898        H  0.98180562  0.79850468  0.27006634     0.16100
F899        F  0.52848965  0.75772580  0.16800782    -0.23300
H900        H  0.52481270  0.80490260  0.13898578     0.17900
C901        C  0.47405835  0.63273089  0.14321149    -0.27400
C902        C  0.49510523  0.64067539  0.16879855     0.06300
C903        C  0.01386113  0.62645893  0.16953262     0.25900
C904        C  0.01340461  0.60127637  0.15098806    -0.11800
C905        C  0.49400492  0.58885505  0.13424889    -0.25800
C906        C  0.47354362  0.60728353  0.12609614     0.36700
C907        C  0.49566594  0.66804534  0.18703326     0.06300
F908        F  0.03595675  0.63374303  0.19078584    -0.19600
H909        H  0.03077487  0.58861273  0.15351176     0.16100
F910        F  0.45356348  0.60094679  0.09980192    -0.23300
H911        H  0.45798432  0.64628171  0.13615994     0.17900
C912        C  0.48976964  0.69122318  0.16474113     0.25900
C913        C  0.49126958  0.71649836  0.18336767    -0.11800
C914        C  0.99839222  0.72292279  0.22111606    -0.25800
C915        C  0.00205150  0.69906459  0.24321656     0.36800
C916        C  0.00001022  0.67423581  0.22458325    -0.27500
F917        F  0.48282144  0.68959497  0.12488596    -0.19600
H918        H  0.48558096  0.73355114  0.16571869     0.16100
F919        F  0.00816489  0.69965241  0.28341301    -0.23300
H920        H  0.00355228  0.65678600  0.24275150     0.17900
C921        C  0.14614385  0.84793991  0.05271063    -0.27400
C922        C  0.14713238  0.85726975  0.01261415     0.06300
C923        C  0.16654614  0.84753959  0.98565711     0.25900
C924        C  0.18430184  0.82809053  0.99876441    -0.11800
C925        C  0.18250035  0.81826974  0.03848240    -0.25800
C926        C  0.16346618  0.82827512  0.06545404     0.36700
C927        C  0.12667155  0.87613972  0.99967309     0.06300
F928        F  0.16766840  0.85606943  0.94662685    -0.19600
H929        H  0.19913835  0.82032782  0.97791699     0.16100
F930        F  0.16154219  0.81879554  0.10386151    -0.23300
H931        H  0.13147606  0.85558301  0.07394190     0.17900
C932        C  0.09976293  0.87009315  0.00674346     0.25900
C933        C  0.08042568  0.88952889  0.00318103    -0.11800
C934        C  0.08751928  0.91536509  0.99230167    -0.25800
C935        C  0.11429197  0.92090371  0.98186532     0.36800
C936        C  0.13377770  0.90126882  0.98562443    -0.27500
F937        F  0.09240844  0.84564120  0.01935284    -0.19600
H938        H  0.06002991  0.88453446  0.01098957     0.16100
F939        F  0.12180463  0.94533670  0.96938280    -0.23300
H940        H  0.15451719  0.90607210  0.97982205     0.17900
C941        C  0.32922995  0.84981314  0.99689592    -0.27400
C942        C  0.35190994  0.85488546  0.02057278     0.06300
C943        C  0.35597855  0.84137902  0.05724694     0.25900
C944        C  0.33767100  0.82242449  0.06969659    -0.11800
C945        C  0.31531619  0.81691831  0.04555237    -0.25800
C946        C  0.31105277  0.83067628  0.00914175     0.36700
C947        C  0.37135964  0.87448489  0.00745059     0.06300
F948        F  0.37753088  0.84677390  0.08101510    -0.19600
H949        H  0.34089698  0.81196237  0.09793518     0.16100
F950        F  0.28954869  0.82518335  0.98530466    -0.23300
H951        H  0.32594380  0.86031399  0.96870598     0.17900
C952        C  0.39771584  0.86687990  0.99931239     0.25900
C953        C  0.41725610  0.88605847  0.99353149    -0.11800
C954        C  0.41067555  0.91303868  0.99629261    -0.25800
C955        C  0.38365085  0.92040999  0.00156111     0.36800
C956        C  0.36419556  0.90114273  0.00698930    -0.27500
F957        F  0.40463275  0.84092601  0.99876642    -0.19600
H958        H  0.43769068  0.87973558  0.98872091     0.16100
F959        F  0.37605206  0.94613912  0.00378018    -0.23300
H960        H  0.34377481  0.90706782  0.01310798     0.17900
C961        C  0.39687313  0.63028692  0.03001240    -0.27400
C962        C  0.37240886  0.62127315  0.04514248     0.06300
C963        C  0.36766941  0.59416394  0.04902811     0.25900
C964        C  0.38711559  0.57618355  0.03679003    -0.11800
C965        C  0.41167217  0.58500534  0.02106798    -0.25800
C966        C  0.41653116  0.61234630  0.01826677     0.36700
C967        C  0.35149890  0.64038520  0.05488887     0.06300
F968        F  0.34444098  0.58517474  0.06516941    -0.19600
H969        H  0.38303168  0.55533434  0.04014980     0.16100
F970        F  0.44005951  0.62181266  0.00393499    -0.23300
H971        H  0.40057615  0.65127799  0.02687210     0.17900
C972        C  0.35546431  0.65921509  0.08575657     0.25900
C973        C  0.33641347  0.67882692  0.09231759    -0.11800
C974        C  0.31360358  0.67995445  0.06764074    -0.25800
C975        C  0.30952535  0.66094850  0.03701258     0.36800
C976        C  0.32832823  0.64106374  0.03097409    -0.27500
F977        F  0.37793724  0.65881055  0.10891362    -0.19600
H978        H  0.33971136  0.69356771  0.11581684     0.16100
F979        F  0.28802897  0.66244006  0.01186883    -0.23300
H980        H  0.32539878  0.62682969  0.00662344     0.17900
C981        C  0.09477039  0.62885195  0.05839801    -0.27400
C982        C  0.12164758  0.62151983  0.06141166     0.06300
C983        C  0.12930566  0.59554901  0.05183475     0.25900
C984        C  0.11068541  0.57791091  0.03573306    -0.11800
C985        C  0.08396050  0.58570970  0.02980357    -0.25800
C986        C  0.07597421  0.61113149  0.04290188     0.36700
C987        C  0.14201906  0.64197253  0.06805882     0.06300
F988        F  0.15502861  0.58759987  0.05682604    -0.19600
H989        H  0.11733275  0.55819314  0.02769086     0.16100
F990        F  0.05015462  0.61916448  0.04032074    -0.23300
H991        H  0.08855185  0.64876669  0.06612650     0.17900
C992        C  0.16198181  0.64542307  0.03857859     0.25900
C993        C  0.18059793  0.66552954  0.04291265    -0.11800
C994        C  0.17923195  0.68280967  0.07612288    -0.25800
C995        C  0.15903430  0.67997959  0.10528188     0.36800
C996        C  0.14047810  0.65947165  0.10131551    -0.27500
F997        F  0.16268525  0.63010091  0.00455846    -0.19600
H998        H  0.19578674  0.66808774  0.01981052     0.16100
F999        F  0.15719618  0.69718303  0.13698439    -0.23300
H1000       H  0.12481934  0.65737209  0.12377023     0.17900
C1001       C  0.31514951  0.97442335  0.80083548    -0.27400
C1002       C  0.32663135  0.49792246  0.81171521     0.06300
C1003       C  0.31145050  0.52129589  0.80906260     0.25900
C1004       C  0.28561095  0.52099286  0.79199872    -0.11800
C1005       C  0.27460284  0.49779195  0.77436160    -0.25800
C1006       C  0.28943847  0.97461565  0.78323851     0.36700
C1007       C  0.35434883  0.49778153  0.82993918     0.06300
F1008       F  0.32139020  0.54448570  0.82347376    -0.19600
H1009       H  0.27480804  0.53947557  0.79041130     0.16100
F1010       F  0.27858207  0.95090406  0.77313402    -0.23300
H1011       H  0.32596090  0.95590489  0.80194923     0.17900
C1012       C  0.36222503  0.97758741  0.86296044     0.25900
C1013       C  0.38740265  0.97824168  0.88190670    -0.11800
C1014       C  0.40562182  0.49891034  0.86867779    -0.25800
C1015       C  0.39925307  0.51731067  0.83815086     0.36800
C1016       C  0.37386031  0.51672024  0.81907101    -0.27500
F1017       F  0.34469811  0.95844378  0.87389055    -0.19600
H1018       H  0.39181896  0.96357555  0.90485927     0.16100
F1019       F  0.41682728  0.53668635  0.82842262    -0.23300
H1020       H  0.36929107  0.53135289  0.79618740     0.17900
C1021       C  0.18692432  0.52660065  0.80741708    -0.27400
C1022       C  0.17440931  0.50325219  0.82048899     0.06300
C1023       C  0.18759487  0.98365214  0.81726146     0.25900
C1024       C  0.21317691  0.98234227  0.79924173    -0.11800
C1025       C  0.22490294  0.50170865  0.77967002    -0.25800
C1026       C  0.21226504  0.52608096  0.78923624     0.36700
C1027       C  0.14610577  0.50385388  0.83624728     0.06300
F1028       F  0.17653143  0.96131136  0.83244335    -0.19600
H1029       H  0.22294449  0.96329317  0.79719510     0.16100
F1030       F  0.22401291  0.54957529  0.78073016    -0.23300
H1031       H  0.17682336  0.54543474  0.81013309     0.17900
C1032       C  0.13753962  0.52414038  0.86269884     0.25900
C1033       C  0.11136610  0.52454574  0.87766332    -0.11800
C1034       C  0.09273113  0.50476363  0.86735323    -0.25800
C1035       C  0.09907081  0.99384327  0.84008299     0.36800
C1036       C  0.12467844  0.99367945  0.82174793    -0.27500
F1037       F  0.15487911  0.54282591  0.87633677    -0.19600
H1038       H  0.10598272  0.53978321  0.89946202     0.16100
F1039       F  0.07969975  0.97765243  0.82530559    -0.23300
H1040       H  0.12816678  0.98093269  0.79572927     0.17900
C1041       C  0.51223285  0.64595991  0.87724723    -0.27400
C1042       C  0.99582155  0.64629160  0.83154824     0.06300
C1043       C  0.00545330  0.62321840  0.81200417     0.25900
C1044       C  0.00427012  0.59827840  0.83139690    -0.11800
C1045       C  0.50543496  0.59773700  0.87841720    -0.25800
C1046       C  0.51141400  0.62205603  0.89843349     0.36700
C1047       C  0.99729971  0.67312410  0.81230086     0.06300
F1048       F  0.01689785  0.62500555  0.77476001    -0.19600
H1049       H  0.01299247  0.58119130  0.81655277     0.16100
F1050       F  0.51649910  0.62313719  0.93898910    -0.23300
H1051       H  0.51585858  0.66403129  0.89419877     0.17900
C1052       C  0.98234748  0.67872930  0.77746274     0.25900
C1053       C  0.98256208  0.70410406  0.76060406    -0.11800
C1054       C  0.50185826  0.72504968  0.77785042    -0.25800
C1055       C  0.52289901  0.71890866  0.80517475     0.36800
C1056       C  0.52489276  0.69369527  0.82326083    -0.27500
F1057       F  0.96734194  0.65956868  0.75952126    -0.19600
H1058       H  0.97131271  0.70645450  0.73277778     0.16100
F1059       F  0.54197660  0.73708756  0.81401233    -0.23300
H1060       H  0.54125660  0.68996315  0.84403105     0.17900
C1061       C  0.01567148  0.87973778  0.82167491    -0.27400
C1062       C  0.49867753  0.85671149  0.83443356     0.06300
C1063       C  0.47722692  0.86484241  0.85898224     0.25900
C1064       C  0.47692458  0.89024188  0.87636453    -0.11800
C1065       C  0.49795163  0.90832084  0.86995838    -0.25800
C1066       C  0.01465480  0.90479649  0.84100323     0.36700
C1067       C  0.49899536  0.82971068  0.81540128     0.06300
F1068       F  0.45652864  0.84818852  0.86626507    -0.19600
H1069       H  0.46058827  0.89551982  0.89643379     0.16100
F1070       F  0.03235557  0.92381640  0.83018649    -0.23300
H1071       H  0.03056659  0.87642406  0.79837323     0.17900
C1072       C  0.00265279  0.82830015  0.77221111     0.25900
C1073       C  0.00220078  0.80296753  0.75474988    -0.11800
C1074       C  0.49995251  0.77843168  0.77792219    -0.25800
C1075       C  0.49740548  0.78117864  0.82063030     0.36800
C1076       C  0.49686835  0.80653703  0.83889410    -0.27500
F1077       F  0.00492297  0.84948946  0.74731139    -0.19600
H1078       H  0.00447569  0.80145538  0.72206594     0.16100
F1079       F  0.49404577  0.75980484  0.84473879    -0.23300
H1080       H  0.49486073  0.80809092  0.87160333     0.17900
C1081       C  0.38685008  0.77427602  0.64784616    -0.27400
C1082       C  0.39373812  0.75426672  0.67524242     0.06300
C1083       C  0.37394862  0.73550406  0.68569252     0.25900
C1084       C  0.34849919  0.73597998  0.66702693    -0.11800
C1085       C  0.34224607  0.75533563  0.63801927    -0.25800
C1086       C  0.36153848  0.77488566  0.62959779     0.36700
C1087       C  0.42127129  0.75367871  0.69343801     0.06300
F1088       F  0.37968858  0.71589030  0.71231321    -0.19600
H1089       H  0.33430105  0.72041599  0.67353127     0.16100
F1090       F  0.35615321  0.79419499  0.60227345    -0.23300
H1091       H  0.40128208  0.78939295  0.64016253     0.17900
C1092       C  0.44467219  0.75398607  0.66937153     0.25900
C1093       C  0.47038313  0.75387904  0.68745771    -0.11800
C1094       C  0.47343403  0.75308648  0.73014776    -0.25800
C1095       C  0.44946416  0.75369819  0.75367141     0.36800
C1096       C  0.42418721  0.75379506  0.73561990    -0.27500
F1097       F  0.44265364  0.75382960  0.62822117    -0.19600
H1098       H  0.48763930  0.75447107  0.66782329     0.16100
F1099       F  0.45036643  0.75336592  0.79488232    -0.23300
H1100       H  0.40667366  0.75415194  0.75494504     0.17900
C1101       C  0.07487794  0.75970451  0.72504197    -0.27400
C1102       C  0.07751577  0.74240958  0.69197876     0.06300
C1103       C  0.05461467  0.72809233  0.67961783     0.25900
C1104       C  0.02967539  0.73216824  0.69857208    -0.11800
C1105       C  0.02643313  0.75062509  0.73059164    -0.25800
C1106       C  0.05033606  0.76327068  0.74474771     0.36700
C1107       C  0.10390981  0.74030568  0.67011855     0.06300
F1108       F  0.05646356  0.70929255  0.65017939    -0.19600
H1109       H  0.01287048  0.72030699  0.68864456     0.16100
F1110       F  0.05097014  0.77823828  0.77910034    -0.23300
H1111       H  0.09209369  0.77057098  0.73610114     0.17900
C1112       C  0.10477077  0.74110044  0.62749895     0.25900
C1113       C  0.12915878  0.74152736  0.60697176    -0.11800
C1114       C  0.15398147  0.74152699  0.62771560    -0.25800
C1115       C  0.15331867  0.73969357  0.67047971     0.36800
C1116       C  0.12856351  0.73936652  0.69133814    -0.27500
F1117       F  0.08199202  0.74302810  0.60525939    -0.19600
H1118       H  0.12826243  0.74262557  0.57413191     0.16100
F1119       F  0.17636339  0.73826836  0.69214830    -0.23300
H1120       H  0.12867058  0.73845036  0.72422617     0.17900
C1121       C  0.22289239  0.55783066  0.68166642    -0.27400
C1122       C  0.24575132  0.57391549  0.67772377     0.06300
C1123       C  0.27041422  0.56293651  0.68963644     0.25900
C1124       C  0.27169311  0.53801668  0.70840382    -0.11800
C1125       C  0.24833903  0.52348127  0.71793811    -0.25800
C1126       C  0.22423280  0.53275739  0.70013031     0.36700
C1127       C  0.24396179  0.60173006  0.66095317     0.06300
F1128       F  0.29351818  0.57626798  0.68305213    -0.19600
H1129       H  0.29125006  0.53055896  0.71624812     0.16100
F1130       F  0.20124610  0.51875124  0.70400468    -0.23300
H1131       H  0.20356580  0.56506131  0.67197970     0.17900
C1132       C  0.22821500  0.60747802  0.62656425     0.25900
C1133       C  0.22788809  0.63302573  0.61003191    -0.11800
C1134       C  0.24309302  0.65399976  0.62687282    -0.25800
C1135       C  0.25786675  0.64869420  0.66234595     0.36800
C1136       C  0.25827511  0.62292860  0.67902198    -0.27500
F1137       F  0.21414493  0.58814302  0.60733692    -0.19600
H1138       H  0.21628144  0.63619844  0.58263470     0.16100
F1139       F  0.27301956  0.66791564  0.67968749    -0.23300
H1140       H  0.27013730  0.61947694  0.70603104     0.17900
C1141       C  0.26739098  0.94198249  0.67876388    -0.27400
C1142       C  0.24423924  0.92620738  0.67989380     0.06300
C1143       C  0.22095732  0.93775784  0.69613836     0.25900
C1144       C  0.22177405  0.96281214  0.71515908    -0.11800
C1145       C  0.24604960  0.97700932  0.72017214    -0.25800
C1146       C  0.26796606  0.96743088  0.69685020     0.36700
C1147       C  0.24416236  0.89819479  0.66343519     0.06300
F1148       F  0.19744773  0.92439100  0.69501617    -0.19600
H1149       H  0.20313723  0.97066063  0.72645983     0.16100
F1150       F  0.29093704  0.98159423  0.69469093    -0.23300
H1151       H  0.28524607  0.93445637  0.66418070     0.17900
C1152       C  0.22691410  0.89079043  0.63155345     0.25900
C1153       C  0.22690595  0.86479970  0.61618301    -0.11800
C1154       C  0.24410839  0.84504794  0.63163026    -0.25800
C1155       C  0.26112430  0.85223138  0.66406054     0.36800
C1156       C  0.26112936  0.87848660  0.67964055    -0.27500
F1157       F  0.21094854  0.90906556  0.61367850    -0.19600
H1158       H  0.21408065  0.86032943  0.59044847     0.16100
F1159       F  0.27877696  0.83443626  0.67909994    -0.23300
H1160       H  0.27466552  0.88354564  0.70420125     0.17900
C1161       C  0.38501917  0.65147826  0.48437914    -0.27400
C1162       C  0.37809954  0.62475380  0.48598785     0.06300
C1163       C  0.35244636  0.61734020  0.49871696     0.25900
C1164       C  0.33337210  0.63670622  0.50725872    -0.11800
C1165       C  0.33968524  0.66364988  0.50290470    -0.25800
C1166       C  0.36604303  0.67085492  0.49256671     0.36700
C1167       C  0.39716744  0.60503095  0.47092906     0.06300
F1168       F  0.34571401  0.59142797  0.50172167    -0.19600
H1169       H  0.31343292  0.63057519  0.51583691     0.16100
F1170       F  0.37320378  0.69651974  0.48767163    -0.23300
H1171       H  0.40480764  0.65735302  0.47460716     0.17900
C1172       C  0.39121436  0.59014581  0.43589275     0.25900
C1173       C  0.40990356  0.57230686  0.42047372    -0.11800
C1174       C  0.43448938  0.56888472  0.44021492    -0.25800
C1175       C  0.44059899  0.58414563  0.47489090     0.36800
C1176       C  0.42206997  0.60228301  0.48990543    -0.27500
F1177       F  0.36750273  0.59319241  0.41635460    -0.19600
H1178       H  0.40506411  0.56074396  0.39362945     0.16100
F1179       F  0.46417027  0.58096051  0.49477900    -0.23300
H1180       H  0.42694958  0.61394895  0.51663623     0.17900
C1181       C  0.15371902  0.61743618  0.46313647    -0.27400
C1182       C  0.12696374  0.62412887  0.45632919     0.06300
C1183       C  0.11864534  0.65040557  0.46222939     0.25900
C1184       C  0.13703644  0.66968497  0.47445726    -0.11800
C1185       C  0.16403671  0.66308892  0.48099381    -0.25800
C1186       C  0.17213393  0.63658379  0.47519166     0.36700
C1187       C  0.10783701  0.60342613  0.44380141     0.06300
F1188       F  0.09292192  0.65755174  0.45500890    -0.19600
H1189       H  0.13017290  0.68986428  0.47806337     0.16100
F1190       F  0.19792849  0.62900353  0.48038745    -0.23300
H1191       H  0.16039271  0.59721259  0.45919273     0.17900
C1192       C  0.11321949  0.58675552  0.41035548     0.25900
C1193       C  0.09503480  0.56701688  0.39928520    -0.11800
C1194       C  0.07144542  0.56364245  0.42154858    -0.31400
C1195       C  0.06625368  0.58004655  0.45522945     0.36800
C1196       C  0.08430407  0.59981404  0.46615423    -0.27500
F1197       F  0.13575471  0.58992502  0.38797528    -0.19600
H1198       H  0.09917370  0.55451571  0.37319353     0.16100
F1199       F  0.04374978  0.57676105  0.47765188    -0.23300
H1200       H  0.08008614  0.61212263  0.49243428     0.17900
C1201       C  0.14914770  0.88204925  0.47988750    -0.27400
C1202       C  0.12265313  0.87355043  0.47514961     0.06300
C1203       C  0.11598277  0.84732074  0.48413478     0.25900
C1204       C  0.13587172  0.82946730  0.49528025    -0.11800
C1205       C  0.16281549  0.83739367  0.49760072    -0.25800
C1206       C  0.16907932  0.86429596  0.49157785     0.36700
C1207       C  0.10233571  0.89184142  0.45914737     0.06300
F1208       F  0.09050268  0.83855042  0.47969213    -0.19600
H1209       H  0.13020194  0.80909530  0.50034418     0.16100
F1210       F  0.19448470  0.87339014  0.49543161    -0.23300
H1211       H  0.15445413  0.90240946  0.47380973     0.17900
C1212       C  0.07905603  0.89740642  0.48140194     0.25900
C1213       C  0.06054671  0.91555317  0.46657170    -0.11800
C1214       C  0.06489299  0.92811498  0.42929839    -0.25800
C1215       C  0.08750484  0.92174654  0.40610412     0.36800
C1216       C  0.10626355  0.90385292  0.42119985    -0.27500
F1217       F  0.07473941  0.88607829  0.51811873    -0.19600
H1218       H  0.04315068  0.92045209  0.48468657     0.16100
F1219       F  0.09148310  0.93305657  0.36927272    -0.23300
H1220       H  0.12388725  0.89934475  0.40336734     0.17900
C1221       C  0.42179111  0.89602471  0.45460810    -0.27400
C1222       C  0.39839244  0.88964278  0.43324294     0.06300
C1223       C  0.39331803  0.90201136  0.39568087     0.25900
C1224       C  0.41097887  0.92120431  0.38077495    -0.11800
C1225       C  0.43383387  0.92822757  0.40317572    -0.25800
C1226       C  0.43929558  0.91516245  0.43986795     0.36700
C1227       C  0.37878383  0.87127193  0.45169261     0.06300
F1228       F  0.37130871  0.89555561  0.37357164    -0.19600
H1229       H  0.40662584  0.93093331  0.35226705     0.16100
F1230       F  0.46109076  0.92180187  0.46234260    -0.23300
H1231       H  0.42600568  0.88685707  0.48360423     0.17900
C1232       C  0.38622525  0.84560789  0.46325921     0.25900
C1233       C  0.36726688  0.82837321  0.47980560    -0.11800
C1234       C  0.34067281  0.83661283  0.48648678    -0.25800
C1235       C  0.33401619  0.86312557  0.47796543     0.36800
C1236       C  0.35273658  0.87998680  0.45998219    -0.27500
F1237       F  0.41165696  0.83698666  0.45760975    -0.19600
H1238       H  0.37336753  0.80833078  0.48652515     0.16100
F1239       F  0.30939066  0.87284251  0.48661091    -0.23300
H1240       H  0.34697275  0.90008570  0.45291621     0.17900
C1241       C  0.13220326  0.75741323  0.30841667    -0.27400
C1242       C  0.10774017  0.75115980  0.32770698     0.06300
C1243       C  0.10862881  0.74402673  0.36883699     0.25900
C1244       C  0.13282320  0.74379854  0.39017666    -0.11800
C1245       C  0.15739540  0.75087735  0.37184481    -0.25800
C1246       C  0.15674265  0.75756977  0.33024209     0.36700
C1247       C  0.08126895  0.75193852  0.30564727     0.06300
F1248       F  0.08599322  0.73680391  0.38859067    -0.19600
H1249       H  0.13206130  0.73798631  0.42179919     0.16100
F1250       F  0.17944287  0.76508175  0.31101563    -0.23300
H1251       H  0.13219743  0.76288945  0.27663539     0.17900
C1252       C  0.05945463  0.76661160  0.32089650     0.25900
C1253       C  0.03440761  0.76634551  0.30107287    -0.11800
C1254       C  0.02941629  0.75000590  0.26690847    -0.25800
C1255       C  0.05228027  0.73686758  0.25015410     0.36800
C1256       C  0.07736508  0.73758919  0.26959190    -0.27500
F1257       F  0.06249420  0.78173636  0.35478434    -0.19600
H1258       H  0.01867132  0.77878707  0.31305926     0.16100
F1259       F  0.05105362  0.72372507  0.21410981    -0.23300
H1260       H  0.09385327  0.72665083  0.25639844     0.17900
C1261       C  0.37483919  0.73341986  0.32275419    -0.27400
C1262       C  0.39754796  0.74758745  0.33614356     0.06300
C1263       C  0.39488701  0.76408471  0.37046936     0.25900
C1264       C  0.37044158  0.76588130  0.39118612    -0.11800
C1265       C  0.34782950  0.75131381  0.37845936    -0.25800
C1266       C  0.35029196  0.73514604  0.34371595     0.36700
C1267       C  0.42384287  0.74546460  0.31433696     0.06300
F1268       F  0.41594037  0.77867653  0.38388703    -0.19600
H1269       H  0.36928930  0.77850285  0.41785432     0.16100
F1270       F  0.32949762  0.71984318  0.33145979    -0.23300
H1271       H  0.37632478  0.72037388  0.29663586     0.17900
C1272       C  0.42551657  0.74953738  0.27228839     0.25900
C1273       C  0.45028340  0.74900159  0.25254729    -0.11800
C1274       C  0.47470470  0.74519201  0.27377538    -0.25800
C1275       C  0.47262652  0.73928256  0.31584898     0.36800
C1276       C  0.44762220  0.73985388  0.33559502    -0.27500
F1277       F  0.40327331  0.75511602  0.25028806    -0.19600
H1278       H  0.45049572  0.75249556  0.22008780     0.16100
F1279       F  0.49403915  0.73166621  0.33812016    -0.23300
H1280       H  0.44678976  0.73556291  0.36779790     0.17900
C1281       C  0.26893195  0.94108424  0.33115066    -0.27400
C1282       C  0.24658538  0.92427591  0.32858579     0.06300
C1283       C  0.22313317  0.93433307  0.31101428     0.25900
C1284       C  0.22304558  0.95914261  0.29240443    -0.11800
C1285       C  0.24674303  0.97426691  0.28832650    -0.25800
C1286       C  0.26866354  0.96622682  0.31277963     0.36700
C1287       C  0.24706431  0.89685723  0.34563066     0.06300
F1288       F  0.20039468  0.91969792  0.31026792    -0.19600
H1289       H  0.20418524  0.96591676  0.28037867     0.16100
F1290       F  0.29073636  0.98168505  0.31604589    -0.23300
H1291       H  0.28671747  0.93462877  0.34705556     0.17900
C1292       C  0.26602334  0.87777511  0.33309724     0.25900
C1293       C  0.26572089  0.85198161  0.34943539    -0.11800
C1294       C  0.24653114  0.84481826  0.37854268    -0.25800
C1295       C  0.22729651  0.86385202  0.39008305     0.36800
C1296       C  0.22760223  0.88934755  0.37390495    -0.27500
F1297       F  0.28481489  0.88407752  0.30508627    -0.19600
H1298       H  0.28115926  0.83806441  0.34075519     0.16100
F1299       F  0.20853230  0.85797649  0.41833616    -0.23300
H1300       H  0.21282036  0.90351130  0.38422562     0.17900
C1301       C  0.27417482  0.61132199  0.36849733    -0.27400
C1302       C  0.25370563  0.60391885  0.34145125     0.06300
C1303       C  0.23501808  0.62350347  0.32996750     0.25900
C1304       C  0.23671375  0.64958234  0.34581061    -0.11800
C1305       C  0.25688278  0.65662514  0.37378343    -0.25800
C1306       C  0.27573442  0.63704063  0.38447322     0.36700
C1307       C  0.25302558  0.57612903  0.32446503     0.06300
F1308       F  0.21498281  0.61738395  0.30370661    -0.19600
H1309       H  0.22141445  0.66381068  0.33795933     0.16100
F1310       F  0.29513280  0.64246958  0.41223307    -0.23300
H1311       H  0.28873089  0.59683800  0.37829801     0.17900
C1312       C  0.27611158  0.56501635  0.30712386     0.25900
C1313       C  0.27557500  0.53977941  0.28935547    -0.11800
C1314       C  0.25156717  0.52509545  0.28539248    -0.25800
C1315       C  0.22963167  0.53444469  0.30881823     0.36800
C1316       C  0.23008325  0.55999716  0.32672637    -0.27500
F1317       F  0.29919013  0.57906689  0.30561771    -0.19600
H1318       H  0.29427285  0.53234084  0.27765883     0.16100
F1319       F  0.20690508  0.51990534  0.31139198    -0.23300
H1320       H  0.21238422  0.56727621  0.34202923     0.17900
O1321       O  0.75461079  0.20532579  0.38238431    -0.85600
O1322       O  0.74707163  0.20207244  0.61516364    -0.85800
O1323       O  0.79396517  0.17525369  0.49304658    -0.87500
O1324       O  0.70853798  0.17443016  0.49009245    -0.86200
O1325       O  0.67612932  0.20612910  0.49007643    -0.85800
O1326       O  0.82564192  0.20769404  0.49406072    -0.87200
O1327       O  0.74711621  0.17268427  0.56142774    -0.85700
O1328       O  0.75402819  0.17478781  0.43410745    -0.85300
Zr1329     Zr  0.75092902  0.19706833  0.49847271     2.84300
O1330       O  0.72326972  0.22216631  0.54066185    -1.07200
O1331       O  0.77774849  0.22416076  0.45829280    -1.08000
C1332       C  0.75509498  0.18121359  0.39641907     1.07500
C1333       C  0.74615856  0.17819301  0.59970194     1.07400
C1334       C  0.81827209  0.18344018  0.49003877     1.10400
C1335       C  0.68402735  0.18195492  0.48721516     1.08200
H1336       H  0.78794755  0.21061180  0.55963978     0.33700
O1337       O  0.77666650  0.22239512  0.54350594    -1.28200
H1338       H  0.71480134  0.21247865  0.43710190     0.33400
O1339       O  0.72554767  0.22348218  0.45474273    -1.29900
O1340       O  0.74796046  0.29403705  0.61821629    -0.85600
O1341       O  0.75194882  0.29690037  0.38495731    -0.87100
O1342       O  0.82552383  0.24821187  0.56743243    -0.85700
O1343       O  0.67269469  0.24478574  0.55943127    -0.85800
O1344       O  0.67585593  0.24988144  0.43202680    -0.85500
O1345       O  0.82744132  0.25113500  0.43939527    -0.85300
O1346       O  0.79414412  0.32335835  0.50181979    -0.85700
O1347       O  0.70682437  0.32279580  0.49909094    -0.85100
O1348       O  0.82666100  0.29172094  0.50337592    -0.86200
O1349       O  0.67491504  0.29052784  0.49700370    -0.85300
O1350       O  0.79421469  0.24721942  0.61872458    -0.85700
O1351       O  0.79919402  0.25140893  0.38450198    -0.85500
O1352       O  0.70728546  0.25129036  0.38100028    -0.85100
O1353       O  0.70162724  0.24649254  0.61383347    -0.85500
O1354       O  0.74893124  0.32429767  0.56618854    -0.85800
O1355       O  0.74976170  0.32586562  0.43903371    -0.87100
Zr1356     Zr  0.74870049  0.24818718  0.58647204     2.83100
Zr1357     Zr  0.75265992  0.25077081  0.41358340     2.83500
Zr1358     Zr  0.80320742  0.24973541  0.50269104     2.84100
Zr1359     Zr  0.69802911  0.24861079  0.49722986     2.83400
Zr1360     Zr  0.75047170  0.30154514  0.50194718     2.84200
O1361       O  0.72497691  0.27582677  0.45724349    -1.07700
O1362       O  0.77607115  0.27526174  0.54529339    -1.07200
C1363       C  0.74779058  0.31822962  0.60406626     1.07400
C1364       C  0.75031236  0.32065379  0.40066893     1.10100
C1365       C  0.81872397  0.24748006  0.60507664     1.07600
C1366       C  0.67769850  0.24479016  0.59785810     1.08000
C1367       C  0.68273500  0.25075024  0.39437812     1.07600
C1368       C  0.82304376  0.25143912  0.40080548     1.07100
C1369       C  0.81888058  0.31597653  0.50167628     1.07500
C1370       C  0.68232706  0.31489412  0.49713386     1.07000
H1371       H  0.78958814  0.28806264  0.44416500     0.33700
O1372       O  0.77804243  0.27653926  0.45950144    -1.28800
H1373       H  0.71102671  0.28572064  0.55818808     0.33700
O1374       O  0.72302570  0.27478043  0.54222354    -1.30200
N1375       N  0.50220825  0.46146542  0.41295024    -0.35800
N1376       N  0.54080866  0.99810452  0.40291115    -0.56300
N1377       N  0.49852829  0.03780993  0.39821383    -0.35800
N1378       N  0.95860073  0.00007198  0.40307125    -0.56300
C1379       C  0.52403424  0.44652985  0.40561161     0.27800
C1380       C  0.97477099  0.44694376  0.39485471     0.27800
C1381       C  0.52062649  0.05310570  0.39685017     0.27800
C1382       C  0.98092515  0.05385165  0.39643436     0.27800
C1383       C  0.55800744  0.47964559  0.42510573     0.36400
C1384       C  0.55351923  0.01927009  0.41884907     0.36400
C1385       C  0.94283481  0.48178842  0.41442877     0.36400
C1386       C  0.94465979  0.02225507  0.41172373     0.36400
C1387       C  0.51630444  0.42169431  0.39204734    -0.21000
C1388       C  0.98036627  0.42259885  0.37735783    -0.21000
C1389       C  0.51371948  0.07828587  0.38401987    -0.21000
C1390       C  0.99023260  0.07795275  0.38249640    -0.21000
C1391       C  0.58146601  0.48738380  0.44422166    -0.22100
C1392       C  0.57574444  0.01123725  0.44082276    -0.22100
C1393       C  0.91967508  0.49144203  0.43218169    -0.22100
C1394       C  0.92015642  0.01595886  0.42866496    -0.22100
C1395       C  0.55011620  0.45335478  0.41781407    -0.17400
C1396       C  0.94951082  0.45484476  0.40949877    -0.17400
C1397       C  0.95400484  0.04813574  0.40502643    -0.17400
C1398       C  0.54602545  0.04576437  0.41192826    -0.17400
H1399       H  0.52913552  0.40501349  0.38531597     0.15500
H1400       H  0.96615986  0.40736395  0.36902306     0.15500
H1401       H  0.52674402  0.09523883  0.38101994     0.15500
H1402       H  0.97842077  0.09480589  0.37322559     0.15500
H1403       H  0.59702751  0.47483425  0.45638909     0.13700
H1404       H  0.58981506  0.02359081  0.45721036     0.13700
H1405       H  0.90337334  0.48031198  0.44518348     0.13700
H1406       H  0.90479169  0.02940369  0.43916123     0.13700
H1407       H  0.50199458  0.47892628  0.42963100     0.27000
H1408       H  0.49722735  0.01959566  0.41241841     0.27000
O1409       O  0.99813000  0.45477192  0.87817773    -0.85600
O1410       O  0.99844926  0.45462058  0.11220886    -0.85800
O1411       O  0.54316482  0.42605820  0.99304094    -0.87500
O1412       O  0.95573918  0.42536677  0.00032120    -0.86200
O1413       O  0.92350245  0.45723526  0.00034103    -0.85800
O1414       O  0.57522288  0.45810151  0.99642330    -0.87200
O1415       O  0.99951339  0.42533746  0.05844377    -0.85700
O1416       O  0.99838243  0.42521944  0.93104316    -0.85300
Zr1417     Zr  0.99863349  0.44834419  0.99493664     2.84300
O1418       O  0.97228178  0.47388569  0.03841507    -1.07200
O1419       O  0.52627202  0.47477965  0.95385505    -1.08000
C1420       C  0.99842986  0.43073260  0.89292690     1.07500
C1421       C  0.99940236  0.43082916  0.09665978     1.07400
C1422       C  0.56762486  0.43382998  0.99556755     1.10400
C1423       C  0.93113255  0.43298086  0.00269710     1.08200
H1424       H  0.53796901  0.46116510  0.05443112     0.33700
O1425       O  0.52626995  0.47270045  0.03925666    -1.28200
H1426       H  0.96053792  0.46239549  0.93633230     0.33400
O1427       O  0.97196495  0.47395335  0.95228053    -1.29900
O1428       O  0.99816218  0.04764912  0.12085508    -0.85600
O1429       O  0.00194605  0.04757296  0.88544261    -0.87100
O1430       O  0.57565918  0.49675016  0.06261661    -0.85700
O1431       O  0.92307594  0.50010204  0.05998122    -0.85800
O1432       O  0.92365214  0.00367843  0.94071804    -0.85500
O1433       O  0.57686385  0.00258271  0.94514047    -0.85300
O1434       O  0.54124885  0.07370169  0.01572992    -0.85700
O1435       O  0.95712948  0.07727284  0.00819968    -0.85100
O1436       O  0.57326588  0.04163626  0.01787007    -0.86200
O1437       O  0.92494521  0.04520990  0.00956490    -0.85300
O1438       O  0.54614391  0.49669449  0.11611151    -0.85700
O1439       O  0.54824271  0.00292179  0.89048628    -0.85500
O1440       O  0.95308403  0.00390162  0.88708721    -0.85100
O1441       O  0.95246677  0.50066346  0.11362266    -0.85500
O1442       O  0.99845712  0.07787637  0.06864194    -0.85800
O1443       O  0.00209601  0.07688807  0.93911383    -0.87100
Zr1444     Zr  0.99861104  0.50026207  0.08279412     2.83100
Zr1445     Zr  0.99966089  0.00267354  0.91706747     2.83500
Zr1446     Zr  0.55234927  0.50001276  0.99851658     2.84100
Zr1447     Zr  0.94579910  0.49965561  0.99578784     2.83400
Zr1448     Zr  0.99982303  0.05456835  0.00442228     2.84200
O1449       O  0.97302336  0.02891909  0.96131357    -1.07700
O1450       O  0.52499897  0.02387925  0.04972336    -1.07200
C1451       C  0.99788228  0.07175103  0.10658321     1.07400
C1452       C  0.00241379  0.07145316  0.90066461     1.10100
C1453       C  0.57027408  0.49584255  0.10087483     1.07600
C1454       C  0.92833531  0.50100661  0.09826299     1.08000
C1455       C  0.92894980  0.00370926  0.90245821     1.07600
C1456       C  0.57215970  0.00368811  0.90678785     1.07100
C1457       C  0.56544008  0.06588245  0.02065628     1.07500
C1458       C  0.93268416  0.06950301  0.01136273     1.07000
H1459       H  0.53862143  0.03812268  0.94990010     0.33700
O1460       O  0.52675490  0.02627499  0.96432523    -1.28800
H1461       H  0.96217351  0.03932771  0.06381967     0.33700
O1462       O  0.97359879  0.02835876  0.04709370    -1.30200
N1463       N  0.74615478  0.21235711  0.10026812    -0.35800
N1464       N  0.78772107  0.25166448  0.09642522    -0.56300
N1465       N  0.74617331  0.29184034  0.09771488    -0.35800
N1466       N  0.70422479  0.25268628  0.10571545    -0.56300
C1467       C  0.76792310  0.19679169  0.10387704     0.27800
C1468       C  0.72472600  0.19744949  0.10945005     0.27800
C1469       C  0.76811196  0.30713038  0.10161092     0.27800
C1470       C  0.72477566  0.30743652  0.10452291     0.27800
C1471       C  0.80217523  0.23014178  0.08585077     0.36400
C1472       C  0.80231919  0.27290601  0.08551165     0.36400
C1473       C  0.68937195  0.23107944  0.09705566     0.36400
C1474       C  0.68939619  0.27375302  0.09444180     0.36400
C1475       C  0.76032271  0.17173281  0.11616577    -0.21000
C1476       C  0.73297418  0.17215730  0.11978463    -0.21000
C1477       C  0.76058958  0.33271455  0.11188320    -0.21000
C1478       C  0.73313540  0.33292046  0.11358943    -0.21000
C1479       C  0.82643872  0.23771876  0.06939269    -0.22100
C1480       C  0.82652777  0.26485071  0.06914864    -0.22100
C1481       C  0.66462102  0.23847501  0.08191244    -0.22100
C1482       C  0.66464955  0.26556285  0.08019850    -0.22100
C1483       C  0.79385199  0.20375002  0.09135459    -0.17400
C1484       C  0.69803449  0.20472957  0.10183060    -0.17400
C1485       C  0.69823271  0.30022911  0.09581601    -0.17400
C1486       C  0.79417979  0.29947877  0.09034573    -0.17400
H1487       H  0.77303024  0.15464180  0.12032671     0.15500
H1488       H  0.72045278  0.15538519  0.12701867     0.15500
H1489       H  0.77347327  0.34974176  0.11565642     0.15500
H1490       H  0.72068335  0.35009937  0.11884669     0.15500
H1491       H  0.84228107  0.22504153  0.05828867     0.13700
H1492       H  0.84245744  0.27720626  0.05771794     0.13700
H1493       H  0.64853029  0.22567647  0.07196116     0.13700
H1494       H  0.64857658  0.27775693  0.06873229     0.13700
H1495       H  0.74544840  0.23033987  0.08538661     0.27000
H1496       H  0.74557159  0.27340610  0.08384486     0.27000
C1497       C  0.50344088  0.24987065  0.24548263    -0.01600
C1498       C  0.75016310  0.99987797  0.25805279    -0.01600
C1499       C  0.00030080  0.24934018  0.74936409    -0.01600
C1500       C  0.74874710  0.49932212  0.74760356    -0.01600
C1501       C  0.68268808  0.02082443  0.20538150    -0.27400
C1502       C  0.67431943  0.49797936  0.18452960     0.06300
C1503       C  0.69312322  0.47704049  0.18312401     0.25900
C1504       C  0.71827505  0.47935202  0.20215503    -0.11800
C1505       C  0.72522068  0.50151676  0.22646738    -0.25800
C1506       C  0.70787655  0.02326998  0.22427010     0.36700
C1507       C  0.64641831  0.49575914  0.16588089     0.06300
F1508       F  0.68703480  0.45352559  0.16541213    -0.19600
H1509       H  0.73158760  0.46247918  0.20102032     0.16100
F1510       F  0.71564199  0.04788570  0.23562526    -0.23300
H1511       H  0.67049160  0.03837264  0.20244207     0.17900
C1512       C  0.62388816  0.50925421  0.18230788     0.25900
C1513       C  0.59856724  0.50824242  0.16296062    -0.11800
C1514       C  0.59472674  0.49329818  0.12728032    -0.25800
C1515       C  0.61662862  0.47846407  0.11258874     0.36800
C1516       C  0.64194095  0.48022436  0.13081335    -0.27500
F1517       F  0.62579883  0.02297785  0.22228724    -0.19600
H1518       H  0.58147535  0.01820998  0.18147774     0.16100
F1519       F  0.61375039  0.46259913  0.07940256    -0.23300
H1520       H  0.65820305  0.46995413  0.11605043     0.17900
C1521       C  0.87123295  0.01682807  0.17694739    -0.27400
C1522       C  0.85315326  0.50199192  0.16500457     0.06300
C1523       C  0.85521257  0.51119450  0.12494349     0.25900
C1524       C  0.87987613  0.51194236  0.10530930    -0.11800
C1525       C  0.90364474  0.50314636  0.12420848    -0.25800
C1526       C  0.89679062  0.01764594  0.15865372     0.36700
C1527       C  0.82613572  0.49991766  0.18485849     0.06300
F1528       F  0.83312489  0.51825725  0.10358780    -0.19600
H1529       H  0.88005939  0.51889414  0.07421398     0.16100
F1530       F  0.91191050  0.03977067  0.16273119    -0.23300
H1531       H  0.86468427  0.03352194  0.19512836     0.17900
C1532       C  0.81669855  0.97282738  0.21098231     0.25900
C1533       C  0.79132179  0.97324308  0.22919851    -0.11800
C1534       C  0.77532569  0.49728025  0.22501117    -0.25800
C1535       C  0.78187069  0.51861718  0.19910399     0.36800
C1536       C  0.80715199  0.52029686  0.18081006    -0.27500
F1537       F  0.83241201  0.95130058  0.21665257    -0.19600
H1538       H  0.78507572  0.95545906  0.24439961     0.16100
F1539       F  0.76470923  0.53913768  0.19439256    -0.23300
H1540       H  0.81208552  0.53807155  0.16427194     0.17900
C1541       C  0.48951951  0.37397005  0.17380721    -0.27400
C1542       C  0.50761584  0.35390790  0.16199618     0.06300
C1543       C  0.01774784  0.36141702  0.12765896     0.25900
C1544       C  0.01797740  0.38617824  0.10913296    -0.11800
C1545       C  0.00141628  0.40693189  0.12272718    -0.25800
C1546       C  0.48924813  0.39871313  0.15436318     0.36700
C1547       C  0.50707322  0.32719518  0.18190326     0.06300
F1548       F  0.03435192  0.34238196  0.11314129    -0.19600
H1549       H  0.03095023  0.38902649  0.08319872     0.16100
F1550       F  0.47053864  0.41687255  0.16504672    -0.23300
H1551       H  0.47489380  0.37018170  0.19728676     0.17900
C1552       C  0.50587120  0.32503712  0.22433842     0.25900
C1553       C  0.50513264  0.30022927  0.24277997    -0.11800
C1554       C  0.50505547  0.27617904  0.22009993    -0.25800
C1555       C  0.00306415  0.28138818  0.17809048     0.36800
C1556       C  0.00138700  0.30620546  0.15885367    -0.27500
F1557       F  0.50593895  0.34696055  0.24836287    -0.19600
H1558       H  0.50411717  0.29969615  0.27567531     0.16100
F1559       F  0.00570290  0.25968690  0.15417845    -0.23300
H1560       H  0.00056936  0.30673239  0.12597081     0.17900
C1561       C  0.97416853  0.13101579  0.16945160    -0.27400
C1562       C  0.99716955  0.14715097  0.16898899     0.06300
C1563       C  0.52516800  0.13050996  0.15531736     0.25900
C1564       C  0.52543715  0.10425000  0.14097111    -0.11800
C1565       C  0.99809148  0.09522394  0.13426019    -0.25800
C1566       C  0.97453049  0.10535621  0.15205451     0.36700
C1567       C  0.99775133  0.17409981  0.18856063     0.06300
F1568       F  0.54853248  0.14415966  0.15646284    -0.19600
H1569       H  0.54409885  0.09588835  0.13025580     0.16100
F1570       F  0.95160212  0.09103480  0.15087680    -0.23300
H1571       H  0.95590375  0.13833852  0.18307830     0.17900
C1572       C  0.97995248  0.19453494  0.17807939     0.25900
C1573       C  0.98221385  0.21987152  0.19616067    -0.11800
C1574       C  0.50341846  0.22224384  0.22243603    -0.25800
C1575       C  0.51928085  0.20040187  0.23605634     0.36800
C1576       C  0.51848521  0.17574188  0.21683163    -0.27500
F1577       F  0.96069175  0.19023748  0.14973437    -0.19600
H1578       H  0.96768001  0.23478066  0.18801928     0.16100
F1579       F  0.53435275  0.20138478  0.27031797    -0.23300
H1580       H  0.53103405  0.16008715  0.22861537     0.17900
C1581       C  0.64156057  0.34926794  0.08705503    -0.27400
C1582       C  0.64527870  0.35824244  0.04711934     0.06300
C1583       C  0.66722110  0.34930266  0.02442547     0.25900
C1584       C  0.68456028  0.33070899  0.04100202    -0.11800
C1585       C  0.68036349  0.32110927  0.08042104    -0.25800
C1586       C  0.65912365  0.33087150  0.10380509     0.36700
C1587       C  0.62589469  0.37658534  0.02922496     0.06300
F1588       F  0.67130597  0.35785607  0.98586684    -0.19600
H1589       H  0.70106524  0.32337206  0.02287980     0.16100
F1590       F  0.65542456  0.32259526  0.14255806    -0.23300
H1591       H  0.62498775  0.35650078  0.10512831     0.17900
C1592       C  0.59874778  0.36983628  0.02763828     0.25900
C1593       C  0.58015180  0.38793509  0.01329564    -0.11800
C1594       C  0.58819044  0.41339195  0.00154778    -0.25800
C1595       C  0.61563597  0.41976333  0.00174290     0.36800
C1596       C  0.63431125  0.40130071  0.01515951    -0.27500
F1597       F  0.59012589  0.34599871  0.04108371    -0.19600
H1598       H  0.55924133  0.38242410  0.01371081     0.16100
F1599       F  0.62440080  0.44412112  0.99087413    -0.23300
H1600       H  0.65524509  0.40671739  0.01634757     0.17900
C1601       C  0.82905006  0.35187429  0.02915967    -0.27400
C1602       C  0.85123519  0.35763228  0.05376092     0.06300
C1603       C  0.85358569  0.34558695  0.09209554     0.25900
C1604       C  0.83470949  0.32690708  0.10441281    -0.11800
C1605       C  0.81315462  0.32051292  0.07896835    -0.25800
C1606       C  0.81005062  0.33352268  0.04169181     0.36700
C1607       C  0.87162817  0.37631609  0.03895537     0.06300
F1608       F  0.87382596  0.35217378  0.11773633    -0.19600
H1609       H  0.83691802  0.31729898  0.13358038     0.16100
F1610       F  0.78893728  0.32797998  0.01709754    -0.23300
H1611       H  0.82674870  0.36126871  0.99984108     0.17900
C1612       C  0.89834599  0.36846880  0.03399165     0.25900
C1613       C  0.91745581  0.38658656  0.02035839    -0.11800
C1614       C  0.91019181  0.41278824  0.01110423    -0.25800
C1615       C  0.88292798  0.41994055  0.01381235     0.36800
C1616       C  0.86402692  0.40190238  0.02788169    -0.27500
F1617       F  0.90584511  0.34321440  0.04186394    -0.19600
H1618       H  0.93805279  0.38021191  0.01796476     0.16100
F1619       F  0.87435944  0.44445764  0.00348854    -0.23300
H1620       H  0.84335557  0.40803172  0.03061384     0.17900
C1621       C  0.89840803  0.13079173  0.05236151    -0.27400
C1622       C  0.87140343  0.12495030  0.04473406     0.06300
C1623       C  0.86492092  0.10142638  0.02389940     0.25900
C1624       C  0.88506376  0.08406338  0.01158403    -0.11800
C1625       C  0.91202284  0.08962097  0.02001939    -0.25800
C1626       C  0.91853590  0.11327085  0.04056633     0.36700
C1627       C  0.85031691  0.14366129  0.05819058     0.06300
F1628       F  0.83908336  0.09464087  0.01681094    -0.19600
H1629       H  0.87947377  0.06589599  0.99618925     0.16100
F1630       F  0.94416250  0.11895673  0.05108475    -0.23300
H1631       H  0.90398407  0.14894549  0.06778773     0.17900
C1632       C  0.85122334  0.15539539  0.09718159     0.25900
C1633       C  0.83269477  0.17483022  0.10806104    -0.11800
C1634       C  0.81258254  0.18220251  0.08079519    -0.25800
C1635       C  0.81053143  0.16940469  0.04296069     0.36800
C1636       C  0.82954891  0.15063510  0.03148761    -0.27500
F1637       F  0.86983895  0.14791380  0.12488660    -0.19600
H1638       H  0.83400348  0.18418546  0.13770900     0.16100
F1639       F  0.79044398  0.17551800  0.01685299    -0.23300
H1640       H  0.82837111  0.14202963  0.00131701     0.17900
C1641       C  0.59682791  0.12881490  0.06133828    -0.27400
C1642       C  0.62401468  0.12230643  0.06008069     0.06300
C1643       C  0.63189035  0.09744399  0.04510706     0.25900
C1644       C  0.61277316  0.07955780  0.03109826    -0.11800
C1645       C  0.58547914  0.08599863  0.03214845    -0.25800
C1646       C  0.57765465  0.11097907  0.04738532     0.36700
C1647       C  0.64393531  0.14224397  0.07226342     0.06300
F1648       F  0.65801725  0.09023689  0.04472515    -0.19600
H1649       H  0.61938629  0.06049035  0.01985103     0.16100
F1650       F  0.55154964  0.11816118  0.04962518    -0.23300
H1651       H  0.59045012  0.14797390  0.07257893     0.17900
C1652       C  0.66448148  0.14923780  0.04533237     0.25900
C1653       C  0.68199313  0.16956421  0.05545538    -0.11800
C1654       C  0.67920838  0.18320922  0.09237371    -0.25800
C1655       C  0.65898300  0.17619434  0.11961880     0.36800
C1656       C  0.64136556  0.15577542  0.10953961    -0.27500
F1657       F  0.66690128  0.13722658  0.00849865    -0.19600
H1658       H  0.69758807  0.17499008  0.03425440     0.16100
F1659       F  0.65637317  0.18912500  0.15567202    -0.23300
H1660       H  0.62560396  0.15062016  0.13059763     0.17900
C1661       C  0.81199523  0.47150845  0.80283369    -0.27400
C1662       C  0.82526411  0.00391972  0.81775154     0.06300
C1663       C  0.81476496  0.02679292  0.79925943     0.25900
C1664       C  0.79009105  0.02612072  0.77854585    -0.11800
C1665       C  0.77470706  0.00264629  0.77523333    -0.25800
C1666       C  0.78682220  0.47175029  0.78398813     0.36700
C1667       C  0.85260122  0.00361837  0.83799135     0.06300
F1668       F  0.82795070  0.05017603  0.80183476    -0.19600
H1669       H  0.78307261  0.04445953  0.76575627     0.16100
F1670       F  0.77605494  0.44808512  0.77342245    -0.23300
H1671       H  0.82286998  0.45303287  0.80427682     0.17900
C1672       C  0.85975683  0.47509732  0.86230751     0.25900
C1673       C  0.88580429  0.47525400  0.87777626    -0.11800
C1674       C  0.90424258  0.00234575  0.87645996    -0.25800
C1675       C  0.89999781  0.01767883  0.84146361     0.36800
C1676       C  0.87460279  0.01800942  0.82225795    -0.27500
F1677       F  0.84230608  0.45673006  0.87625248    -0.19600
H1678       H  0.89126821  0.46046380  0.90001981     0.16100
F1679       F  0.91985447  0.03322865  0.82692718    -0.23300
H1680       H  0.87225084  0.02962612  0.79497519     0.17900
C1681       C  0.69372384  0.02147175  0.82461134    -0.27400
C1682       C  0.67503142  0.00071820  0.82215834     0.06300
C1683       C  0.68759385  0.48204474  0.81555190     0.25900
C1684       C  0.71305843  0.48105836  0.79743043    -0.11800
C1685       C  0.72487199  0.99817832  0.77901566    -0.25800
C1686       C  0.71841144  0.02005923  0.80432296     0.36700
C1687       C  0.64807091  0.00306160  0.84217835     0.06300
F1688       F  0.67762715  0.45991263  0.83304447    -0.19600
H1689       H  0.72371315  0.46243457  0.79743433     0.16100
F1690       F  0.73493381  0.04126782  0.80659383    -0.23300
H1691       H  0.68882249  0.03944640  0.84097877     0.17900
C1692       C  0.64582647  0.01305933  0.88198246     0.25900
C1693       C  0.62090320  0.01462873  0.90105367    -0.11800
C1694       C  0.59719662  0.00580424  0.88172458    -0.25800
C1695       C  0.59963081  0.48782092  0.83897701     0.36800
C1696       C  0.62530325  0.48779861  0.82122594    -0.27500
F1697       F  0.66792016  0.02008751  0.90351483    -0.19600
H1698       H  0.62041180  0.02206685  0.93200645     0.16100
F1699       F  0.58212816  0.46831815  0.82911775    -0.23300
H1700       H  0.63020293  0.47264190  0.79907796     0.17900
C1701       C  0.98987722  0.14203570  0.86653626    -0.27400
C1702       C  0.50608043  0.14497247  0.84036786     0.06300
C1703       C  0.52439081  0.13908247  0.87165665     0.25900
C1704       C  0.52383528  0.11444079  0.89116723    -0.11800
C1705       C  0.00247243  0.09545300  0.87381087    -0.25800
C1706       C  0.98796600  0.11787394  0.88678249     0.36700
C1707       C  0.50562919  0.17183930  0.82031581     0.06300
F1708       F  0.54311528  0.15701092  0.88327384    -0.19600
H1709       H  0.53762863  0.11096605  0.91600655     0.16100
F1710       F  0.97182213  0.11652792  0.91982715    -0.23300
H1711       H  0.97817790  0.15855471  0.87768084     0.17900
C1712       C  0.50286656  0.17402663  0.77796270     0.25900
C1713       C  0.50191645  0.19881609  0.75937209    -0.11800
C1714       C  0.00391165  0.22307641  0.77431295    -0.25800
C1715       C  0.00781065  0.22070306  0.81680579     0.36800
C1716       C  0.00932390  0.19546899  0.83512945    -0.27500
F1717       F  0.50142622  0.15213284  0.75400602    -0.19600
H1718       H  0.49960000  0.19928136  0.72662497     0.16100
F1719       F  0.01096478  0.24228443  0.84088073    -0.23300
H1720       H  0.01192158  0.19441578  0.86777780     0.17900
C1721       C  0.52091734  0.37131059  0.83548166    -0.27400
C1722       C  0.99319297  0.35617926  0.82635480     0.06300
C1723       C  0.97999529  0.37889332  0.81142612     0.25900
C1724       C  0.98278309  0.40373839  0.83121869    -0.11800
C1725       C  0.99885701  0.40644210  0.86620053    -0.25800
C1726       C  0.52150545  0.39684996  0.85269096     0.36700
C1727       C  0.99201562  0.32968919  0.80533297     0.06300
F1728       F  0.96377711  0.37689259  0.77846690    -0.19600
H1729       H  0.97153971  0.42053110  0.82020315     0.16100
F1730       F  0.54547450  0.40802346  0.86169431    -0.23300
H1731       H  0.53971604  0.36154583  0.82908227     0.17900
C1732       C  0.51293604  0.32417859  0.77751969     0.25900
C1733       C  0.51451011  0.29843195  0.76211647    -0.11800
C1734       C  0.99771324  0.27712078  0.77144567    -0.25800
C1735       C  0.98045584  0.28226474  0.80483279     0.36800
C1736       C  0.97869921  0.30786870  0.82249327    -0.27500
F1737       F  0.52650991  0.34359012  0.75806078    -0.19600
H1738       H  0.52647240  0.29614908  0.73502538     0.16100
F1739       F  0.96499911  0.26279953  0.82038561    -0.23300
H1740       H  0.96665164  0.31072549  0.84948936     0.17900
C1741       C  0.88290439  0.26987108  0.65442742    -0.27400
C1742       C  0.89515516  0.24575071  0.66447605     0.06300
C1743       C  0.88019730  0.22225774  0.65890471     0.25900
C1744       C  0.85392333  0.22311640  0.64356520    -0.11800
C1745       C  0.84195669  0.24727059  0.63312504    -0.25800
C1746       C  0.85689851  0.27060385  0.63835926     0.36700
C1747       C  0.92267369  0.24542570  0.68302353     0.06300
F1748       F  0.89143576  0.19831813  0.66620547    -0.19600
H1749       H  0.84348964  0.20474213  0.63750139     0.16100
F1750       F  0.84684812  0.29405698  0.62560251    -0.23300
H1751       H  0.89357621  0.28829444  0.65867727     0.17900
C1752       C  0.94389028  0.26124352  0.66863980     0.25900
C1753       C  0.96863273  0.26218178  0.68938097    -0.11800
C1754       C  0.97354235  0.24670781  0.72432185    -0.25800
C1755       C  0.95137390  0.23175371  0.73909569     0.36800
C1756       C  0.92704735  0.23072581  0.71823343    -0.27500
F1757       F  0.94076693  0.27591347  0.63454150    -0.19600
H1758       H  0.98394401  0.27535744  0.67819140     0.16100
F1759       F  0.95201239  0.21914329  0.77536835    -0.23300
H1760       H  0.91087498  0.21936257  0.73127631     0.17900
C1761       C  0.57533426  0.24956418  0.72812069    -0.27400
C1762       C  0.57575931  0.24715989  0.68565960     0.06300
C1763       C  0.55090011  0.24440629  0.66534390     0.25900
C1764       C  0.52655882  0.24440878  0.68715771    -0.11800
C1765       C  0.52615441  0.24770288  0.72985630    -0.25800
C1766       C  0.55131281  0.24976126  0.74975960     0.36700
C1767       C  0.60230754  0.24641469  0.66378926     0.06300
F1768       F  0.54995358  0.24218156  0.62423119    -0.19600
H1769       H  0.50822657  0.24165808  0.67029579     0.16100
F1770       F  0.55269072  0.25268221  0.79076739    -0.23300
H1771       H  0.59385719  0.25091158  0.74505816     0.17900
C1772       C  0.62359756  0.26355377  0.67467568     0.25900
C1773       C  0.64874561  0.26167813  0.65547596    -0.11800
C1774       C  0.65323278  0.24325107  0.62412811    -0.25800
C1775       C  0.63195211  0.22619466  0.61319674     0.36800
C1776       C  0.60711908  0.22758886  0.63305506    -0.27500
F1777       F  0.61979828  0.28303967  0.70260537    -0.19600
H1778       H  0.66428197  0.27564738  0.66362167     0.16100
F1779       F  0.63505427  0.20817704  0.58280510    -0.23300
H1780       H  0.59162716  0.21371745  0.62437282     0.17900
C1781       C  0.72020083  0.06412773  0.69676212    -0.27400
C1782       C  0.74287856  0.07448900  0.67733094     0.06300
C1783       C  0.76552717  0.05793873  0.67444271     0.25900
C1784       C  0.76631840  0.03334268  0.69438604    -0.11800
C1785       C  0.74499254  0.02468364  0.71916060    -0.25800
C1786       C  0.72076016  0.03927989  0.71567846     0.36700
C1787       C  0.74274755  0.10221073  0.66015848     0.06300
F1788       F  0.78702869  0.06548685  0.65228494    -0.19600
H1789       H  0.78445937  0.02173243  0.69259134     0.16100
F1790       F  0.69712093  0.02950080  0.72899052    -0.23300
H1791       H  0.70184855  0.07541492  0.69793416     0.17900
C1792       C  0.72056991  0.11228084  0.63855486     0.25900
C1793       C  0.72111996  0.13792536  0.62207789    -0.11800
C1794       C  0.74366470  0.15439895  0.62635643    -0.25800
C1795       C  0.76573735  0.14451320  0.64803584     0.36800
C1796       C  0.76508461  0.11899941  0.66515984    -0.27500
F1797       F  0.69896338  0.09679994  0.63089336    -0.19600
H1798       H  0.70426947  0.14450875  0.60404720     0.16100
F1799       F  0.78866978  0.15875002  0.65021995    -0.23300
H1800       H  0.78243190  0.11215396  0.68175302     0.17900
C1801       C  0.76781777  0.43884080  0.67882115    -0.27400
C1802       C  0.74482557  0.42280191  0.68057100     0.06300
C1803       C  0.72153493  0.43417923  0.69710714     0.25900
C1804       C  0.72193046  0.45968882  0.71437499    -0.11800
C1805       C  0.74591071  0.47443481  0.71834168    -0.25800
C1806       C  0.76811558  0.46458011  0.69598723     0.36700
C1807       C  0.74474818  0.39480104  0.66402142     0.06300
F1808       F  0.69839755  0.42020570  0.69824592    -0.19600
H1809       H  0.70317899  0.46736913  0.72548906     0.16100
F1810       F  0.79100506  0.47888219  0.69383919    -0.23300
H1811       H  0.78574178  0.43132830  0.66441789     0.17900
C1812       C  0.72516550  0.38657612  0.63586303     0.25900
C1813       C  0.72519653  0.36077429  0.61996792    -0.11800
C1814       C  0.74476432  0.34209197  0.63103013    -0.25800
C1815       C  0.76417147  0.34993287  0.65978879     0.36800
C1816       C  0.76410973  0.37598741  0.67604245    -0.27500
F1817       F  0.70681467  0.40397936  0.62160355    -0.19600
H1818       H  0.71050331  0.35571816  0.59694547     0.16100
F1819       F  0.78405192  0.33305188  0.67030933    -0.23300
H1820       H  0.77946370  0.38161289  0.69765976     0.17900
C1821       C  0.88493379  0.15335332  0.46071243    -0.27400
C1822       C  0.87717151  0.12815930  0.44717032     0.06300
C1823       C  0.85015507  0.12076632  0.44981239     0.25900
C1824       C  0.83138361  0.13836499  0.46579106    -0.11800
C1825       C  0.83899701  0.16387247  0.47856914    -0.25800
C1826       C  0.86616973  0.17109355  0.47614925     0.36700
C1827       C  0.89775349  0.10915358  0.43350338     0.06300
F1828       F  0.84191937  0.09636410  0.43783438    -0.19600
H1829       H  0.81069322  0.13215269  0.46712879     0.16100
F1830       F  0.87477911  0.19532460  0.48833199    -0.23300
H1831       H  0.90567145  0.15940110  0.45909273     0.17900
C1832       C  0.89456970  0.09399699  0.39775941     0.25900
C1833       C  0.91327673  0.07449868  0.38782678    -0.11800
C1834       C  0.93564488  0.07047751  0.41274638    -0.25800
C1835       C  0.93964401  0.08665534  0.44701556     0.36800
C1836       C  0.92072229  0.10565067  0.45743461    -0.27500
F1837       F  0.87358054  0.09815406  0.37239159    -0.19600
H1838       H  0.91022227  0.06230656  0.36103516     0.16100
F1839       F  0.96136227  0.08335592  0.47126612    -0.23300
H1840       H  0.92365000  0.11713951  0.48498313     0.17900
C1841       C  0.65062219  0.11617074  0.46421925    -0.27400
C1842       C  0.62473222  0.12439295  0.45392441     0.06300
C1843       C  0.61821539  0.15133828  0.45608237     0.25900
C1844       C  0.63740361  0.16974761  0.46804064    -0.11800
C1845       C  0.66351992  0.16171063  0.47798971    -0.25800
C1846       C  0.66990578  0.13456586  0.47622389     0.36700
C1847       C  0.60438786  0.10473988  0.44202635     0.06300
F1848       F  0.59347643  0.15996077  0.44554201    -0.19600
H1849       H  0.63183959  0.19043332  0.46861879     0.16100
F1850       F  0.69467863  0.12565924  0.48598098    -0.23300
H1851       H  0.65583851  0.09539332  0.46333354     0.17900
C1852       C  0.60959225  0.08598480  0.41133011     0.25900
C1853       C  0.59029971  0.06717346  0.40115790    -0.11800
C1854       C  0.56568777  0.06676297  0.42149121    -0.31400
C1855       C  0.56035431  0.08568760  0.45182240     0.36800
C1856       C  0.57961960  0.10449728  0.46198105    -0.27500
F1857       F  0.63314138  0.08606186  0.39088978    -0.19600
H1858       H  0.59457641  0.05272643  0.37760785     0.16100
F1859       F  0.53675093  0.08562702  0.47211078    -0.23300
H1860       H  0.57539741  0.11861925  0.48601011     0.17900
C1861       C  0.64771862  0.38102799  0.48581637    -0.27400
C1862       C  0.62241788  0.37302076  0.47239478     0.06300
C1863       C  0.61582398  0.34612815  0.47163743     0.25900
C1864       C  0.63507893  0.32730970  0.48163501    -0.11800
C1865       C  0.66112632  0.33510292  0.49285066    -0.25800
C1866       C  0.66690502  0.36229099  0.49649469     0.36700
C1867       C  0.60340403  0.39282157  0.45761728     0.06300
F1868       F  0.59118916  0.33807593  0.45941296    -0.19600
H1869       H  0.62981744  0.30660681  0.47898027     0.16100
F1870       F  0.69118334  0.37086127  0.50947103    -0.23300
H1871       H  0.65272063  0.40184640  0.48733888     0.17900
C1872       C  0.58102280  0.39968380  0.48092050     0.25900
C1873       C  0.56360907  0.41918821  0.46721817    -0.11800
C1874       C  0.56824424  0.43184280  0.43007302    -0.25800
C1875       C  0.59030106  0.42459289  0.40622434     0.36800
C1876       C  0.60789827  0.40519079  0.42013835    -0.27500
F1877       F  0.57641620  0.38795765  0.51725370    -0.19600
H1878       H  0.54664173  0.42476623  0.48581157     0.16100
F1879       F  0.59474758  0.43626320  0.36979313    -0.23300
H1880       H  0.62504491  0.39978772  0.40181126     0.17900
C1881       C  0.92211875  0.39779290  0.47107839    -0.27400
C1882       C  0.89587800  0.39564585  0.45633247     0.06300
C1883       C  0.88737860  0.41283709  0.42529335     0.25900
C1884       C  0.90488424  0.43172757  0.40942439    -0.11800
C1885       C  0.93102028  0.43401443  0.42455005    -0.25800
C1886       C  0.93951176  0.41680282  0.45547840     0.36700
C1887       C  0.87744297  0.37543189  0.47304119     0.06300
F1888       F  0.86228515  0.41102529  0.40978170    -0.19600
H1889       H  0.89802464  0.44470833  0.38549716     0.16100
F1890       F  0.96453817  0.41880234  0.47121883    -0.23300
H1891       H  0.92902337  0.38500734  0.49521854     0.17900
C1892       C  0.88487598  0.34864804  0.47500458     0.25900
C1893       C  0.86615823  0.32949757  0.48642929    -0.11800
C1894       C  0.83974716  0.33668224  0.49651606    -0.25800
C1895       C  0.83308167  0.36375340  0.49743338     0.36800
C1896       C  0.85170981  0.38278793  0.48562538    -0.27500
F1897       F  0.90974185  0.34079708  0.46369789    -0.19600
H1898       H  0.87210209  0.30891591  0.48561637     0.16100
F1899       F  0.80834364  0.37194018  0.50870916    -0.23300
H1900       H  0.84583618  0.40339475  0.48558718     0.17900
C1901       C  0.62406503  0.27528185  0.33181838    -0.27400
C1902       C  0.60777527  0.25260273  0.33039888     0.06300
C1903       C  0.61802993  0.22876542  0.34558073     0.25900
C1904       C  0.64356483  0.22790787  0.36334675    -0.11800
C1905       C  0.65968032  0.25066970  0.36578983    -0.25800
C1906       C  0.64967048  0.27443371  0.34969939     0.36700
C1907       C  0.58087167  0.25336643  0.31072650     0.06300
F1908       F  0.60319492  0.20633889  0.34350956    -0.19600
H1909       H  0.65042757  0.20957919  0.37668223     0.16100
F1910       F  0.66399218  0.29710680  0.35337763    -0.23300
H1911       H  0.61665683  0.29380991  0.31991137     0.17900
C1912       C  0.55692405  0.25298211  0.33329416     0.25900
C1913       C  0.53181339  0.25321908  0.31347378    -0.11800
C1914       C  0.53006935  0.25190793  0.27055509    -0.25800
C1915       C  0.55460367  0.25211018  0.24861640     0.36800
C1916       C  0.57928718  0.25331554  0.26839347    -0.27500
F1917       F  0.55784906  0.25216002  0.37451040    -0.19600
H1918       H  0.51403066  0.25395762  0.33196239     0.16100
F1919       F  0.55475131  0.25019810  0.20743520    -0.23300
H1920       H  0.59741208  0.25328211  0.25041189     0.17900
C1921       C  0.87333740  0.24760457  0.31155692    -0.27400
C1922       C  0.89814070  0.24868037  0.33239734     0.06300
C1923       C  0.89749472  0.25156427  0.37484961     0.25900
C1924       C  0.87318920  0.25279418  0.39569492    -0.11800
C1925       C  0.84823769  0.25144470  0.37538969    -0.25800
C1926       C  0.84870645  0.24936276  0.33259684     0.36700
C1927       C  0.92460643  0.24886197  0.31035255     0.06300
F1928       F  0.92047476  0.25423767  0.39647236    -0.19600
H1929       H  0.87420467  0.25500587  0.42842558     0.16100
F1930       F  0.82558302  0.24920818  0.31099603    -0.23300
H1931       H  0.87294741  0.24541051  0.27880334     0.17900
C1932       C  0.92831945  0.26470160  0.27601237     0.25900
C1933       C  0.95347383  0.26702464  0.25790819    -0.11800
C1934       C  0.97648780  0.25351990  0.27262380    -0.25800
C1935       C  0.97210808  0.23601217  0.30545502     0.36800
C1936       C  0.94684998  0.23431185  0.32450083    -0.27500
F1937       F  0.90761368  0.27834660  0.25968438    -0.19600
H1938       H  0.95420476  0.27895732  0.23080220     0.16100
F1939       F  0.99193549  0.21986376  0.31856399    -0.23300
H1940       H  0.94454385  0.22104378  0.34997214     0.17900
C1941       C  0.77099350  0.44075326  0.32528080    -0.27400
C1942       C  0.74883859  0.42373484  0.32167755     0.06300
C1943       C  0.72567515  0.43373900  0.30313382     0.25900
C1944       C  0.72538976  0.45903984  0.28597330    -0.11800
C1945       C  0.74875802  0.47482472  0.28373688    -0.25800
C1946       C  0.77068624  0.46625406  0.30788560     0.36700
C1947       C  0.74897770  0.39631699  0.33928211     0.06300
F1948       F  0.70336388  0.41859572  0.30011223    -0.19600
H1949       H  0.70659376  0.46566816  0.27355567     0.16100
F1950       F  0.79282600  0.48157059  0.31177019    -0.23300
H1951       H  0.78866652  0.43423501  0.34141310     0.17900
C1952       C  0.76837608  0.37717360  0.32860473     0.25900
C1953       C  0.76785722  0.35160544  0.34595126    -0.11800
C1954       C  0.74813111  0.34473217  0.37451173    -0.25800
C1955       C  0.72847720  0.36376446  0.38417114     0.36800
C1956       C  0.72887564  0.38896858  0.36672205    -0.27500
F1957       F  0.78782698  0.38319908  0.30148343    -0.19600
H1958       H  0.78353920  0.33765610  0.33849735     0.16100
F1959       F  0.70915856  0.35821190  0.41178843    -0.23300
H1960       H  0.71370072  0.40312616  0.37561041     0.17900
C1961       C  0.77828496  0.11506722  0.35790502    -0.27400
C1962       C  0.75513439  0.10487653  0.33909337     0.06300
C1963       C  0.73286593  0.12185927  0.33510999     0.25900
C1964       C  0.73380972  0.14802689  0.34999228    -0.11800
C1965       C  0.75692484  0.15794508  0.36892503    -0.25800
C1966       C  0.77924431  0.14118574  0.37229431     0.36700
C1967       C  0.75488855  0.07700663  0.32270664     0.06300
F1968       F  0.71003032  0.11315060  0.31725718    -0.19600
H1969       H  0.71596098  0.16010796  0.34868843     0.16100
F1970       F  0.80168166  0.14980734  0.39136076    -0.23300
H1971       H  0.79557179  0.10256098  0.36253576     0.17900
C1972       C  0.77684252  0.06717274  0.30074593     0.25900
C1973       C  0.77644224  0.04168636  0.28401867    -0.11800
C1974       C  0.75320764  0.02565875  0.28484780    -0.25800
C1975       C  0.73245395  0.03437486  0.31109088     0.36800
C1976       C  0.73315518  0.05979317  0.32909561    -0.27500
F1977       F  0.79852187  0.08260660  0.29370543    -0.19600
H1978       H  0.79464694  0.03513857  0.26970462     0.16100
F1979       F  0.71066350  0.01897587  0.31735810    -0.23300
H1980       H  0.71646680  0.06613025  0.34765887     0.17900
O1981       O  0.75500718  0.70364782  0.38347801    -0.85600
O1982       O  0.75396765  0.70356036  0.61730313    -0.85800
O1983       O  0.79928986  0.67819962  0.49679016    -0.87500
O1984       O  0.71375111  0.67412411  0.49527365    -0.86200
O1985       O  0.68027088  0.70478541  0.49702655    -0.85800
O1986       O  0.82967643  0.71178422  0.49727115    -0.87200
O1987       O  0.75615831  0.67515596  0.56279180    -0.85700
O1988       O  0.75876967  0.67459538  0.43678211    -0.85300
Zr1989     Zr  0.75537402  0.69843145  0.49968355     2.84300
O1990       O  0.72709816  0.72240243  0.54261265    -1.07200
O1991       O  0.77987527  0.72575607  0.45713336    -1.08000
C1992       C  0.75801595  0.67991048  0.39866555     1.07500
C1993       C  0.75502715  0.67976841  0.60119919     1.07400
C1994       C  0.82338349  0.68710740  0.49514186     1.10400
C1995       C  0.68897225  0.68097081  0.49437641     1.08200
H1996       H  0.79247378  0.71443651  0.55972124     0.33700
O1997       O  0.78017718  0.72526541  0.54364783    -1.28200
H1998       H  0.71673371  0.71083950  0.44031897     0.33400
O1999       O  0.72745344  0.72265037  0.45674412    -1.29900
O2000       O  0.74928396  0.79632176  0.61722553    -0.85600
O2001       O  0.75042080  0.79640175  0.38385356    -0.87100
O2002       O  0.82776467  0.75628598  0.56474201    -0.85700
O2003       O  0.67712674  0.74551408  0.56303128    -0.85800
O2004       O  0.67608799  0.74632518  0.43724563    -0.85500
O2005       O  0.82750839  0.75340098  0.43626662    -0.85300
O2006       O  0.79022191  0.82682099  0.50100343    -0.85700
O2007       O  0.70473234  0.82160675  0.49668267    -0.85100
O2008       O  0.82403529  0.79659287  0.50006039    -0.86200
O2009       O  0.67426711  0.78811319  0.49621756    -0.85300
O2010       O  0.79741216  0.75369865  0.61724168    -0.85700
O2011       O  0.79801208  0.75081252  0.38263944    -0.85500
O2012       O  0.70512489  0.74840610  0.38341661    -0.85100
O2013       O  0.70543746  0.74692730  0.61769754    -0.85500
O2014       O  0.74770521  0.82516711  0.56356993    -0.85800
O2015       O  0.74874027  0.82557682  0.43778059    -0.87100
Zr2016     Zr  0.75164310  0.74990450  0.58742350     2.83100
Zr2017     Zr  0.75197039  0.75006911  0.41281152     2.83500
Zr2018     Zr  0.80451499  0.75285129  0.50064074     2.84100
Zr2019     Zr  0.70030201  0.74773743  0.49977443     2.83400
Zr2020     Zr  0.74907417  0.80180098  0.50044522     2.84200
O2021       O  0.72429218  0.77509356  0.45667128    -1.07700
O2022       O  0.77661643  0.77731269  0.54337249    -1.07200
C2023       C  0.74770561  0.82012705  0.60177679     1.07400
C2024       C  0.74912955  0.82024644  0.39958719     1.10100
C2025       C  0.82150782  0.75613913  0.60269564     1.07600
C2026       C  0.68159617  0.74546713  0.60145180     1.08000
C2027       C  0.68107315  0.74694540  0.39900439     1.07600
C2028       C  0.82207037  0.75235411  0.39799560     1.07100
C2029       C  0.81510402  0.82047842  0.50004849     1.07500
C2030       C  0.68058677  0.81276230  0.49452081     1.07000
H2031       H  0.78785016  0.78924125  0.44162912     0.33700
O2032       O  0.77701536  0.77741654  0.45750622    -1.28800
H2033       H  0.71169790  0.78592361  0.55943389     0.33700
O2034       O  0.72398259  0.77520753  0.54374196    -1.30200
N2035       N  0.49978969  0.95872930  0.39359327    -0.35800
N2036       N  0.54347527  0.50094675  0.41434076    -0.56300
N2037       N  0.50093834  0.54023485  0.42043220    -0.35800
N2038       N  0.95852679  0.50198885  0.40226749    -0.56300
C2039       C  0.52202313  0.94370425  0.38947415     0.27800
C2040       C  0.97707572  0.94454492  0.40419263     0.27800
C2041       C  0.52237026  0.55545164  0.41259630     0.27800
C2042       C  0.98282323  0.55503645  0.39679071     0.27800
C2043       C  0.55462267  0.97659401  0.41505677     0.36400
C2044       C  0.55724358  0.52220522  0.42751216     0.36400
C2045       C  0.94337403  0.97971255  0.41580053     0.36400
C2046       C  0.94581683  0.52442629  0.41334264     0.36400
C2047       C  0.51502773  0.91904953  0.37422201    -0.21000
C2048       C  0.98429790  0.91877992  0.39469252    -0.21000
C2049       C  0.51411041  0.58048452  0.40102507    -0.21000
C2050       C  0.99262462  0.57922299  0.38392035    -0.21000
C2051       C  0.57646794  0.98412794  0.43835514    -0.22100
C2052       C  0.58100690  0.51449492  0.44569271    -0.22100
C2053       C  0.91937282  0.98896229  0.43139228    -0.22100
C2054       C  0.92150703  0.51850061  0.43130457    -0.22100
C2055       C  0.54753959  0.95031600  0.40515722    -0.17400
C2056       C  0.95097743  0.95289278  0.41384455    -0.17400
C2057       C  0.95609057  0.55013601  0.40775981    -0.17400
C2058       C  0.54875631  0.54846512  0.42241254    -0.17400
H2059       H  0.52812155  0.90235098  0.36896463     0.15500
H2060       H  0.97109982  0.90208796  0.38995908     0.15500
H2061       H  0.52662509  0.59735236  0.39430824     0.15500
H2062       H  0.98121673  0.59682377  0.37705580     0.15500
H2063       H  0.59111507  0.97145465  0.45263182     0.13700
H2064       H  0.59616052  0.52705013  0.45921313     0.13700
H2065       H  0.90323150  0.97755789  0.44434795     0.13700
H2066       H  0.90692924  0.53216528  0.44358726     0.13700
H2067       H  0.49839051  0.97615632  0.41024738     0.27000
H2068       H  0.50139284  0.52238788  0.43588240     0.27000
O2069       O  0.00010560  0.95701187  0.88621840    -0.85600
O2070       O  0.00125415  0.95592239  0.11953967    -0.85800
O2071       O  0.54234956  0.92463682  0.00238509    -0.87500
O2072       O  0.95623529  0.92801943  0.00730520    -0.86200
O2073       O  0.92443505  0.96035221  0.00574691    -0.85800
O2074       O  0.57438604  0.95673191  0.00509237    -0.87200
O2075       O  0.00308909  0.92609886  0.06640970    -0.85700
O2076       O  0.99713285  0.92713428  0.93854242    -0.85300
Zr2077     Zr  0.99933153  0.95001647  0.00286741     2.84300
O2078       O  0.97312631  0.97583313  0.04635377    -1.07200
O2079       O  0.52701540  0.97360860  0.96038526    -1.08000
C2080       C  0.99822051  0.93302869  0.90053937     1.07500
C2081       C  0.00299106  0.93196690  0.10461180     1.07400
C2082       C  0.56684482  0.93241309  0.00473178     1.10400
C2083       C  0.93175770  0.93601846  0.00817117     1.08200
H2084       H  0.53642309  0.95943289  0.06187234     0.33700
O2085       O  0.52534391  0.97135607  0.04628911    -1.28200
H2086       H  0.96120677  0.96530366  0.94457260     0.33400
O2087       O  0.97292682  0.97644836  0.96071380    -1.29900
O2088       O  0.99675565  0.54607033  0.11315052    -0.85600
O2089       O  0.99593428  0.54725803  0.87983843    -0.87100
O2090       O  0.57516662  0.99509704  0.07007386    -0.85700
O2091       O  0.92336531  0.99971676  0.06844590    -0.85800
O2092       O  0.92238261  0.49842542  0.93198565    -0.85500
O2093       O  0.57532159  0.50334350  0.93401914    -0.85300
O2094       O  0.54261863  0.57325520  0.01398436    -0.85700
O2095       O  0.95416284  0.57397825  0.99911166    -0.85100
O2096       O  0.57505903  0.54164095  0.00923204    -0.86200
O2097       O  0.92237177  0.54166156  0.99837127    -0.85300
O2098       O  0.54505859  0.99431703  0.12274072    -0.85700
O2099       O  0.54510933  0.50293741  0.88116221    -0.85500
O2100       O  0.95212423  0.49970561  0.87867796    -0.85100
O2101       O  0.95376156  0.00012759  0.12104179    -0.85500
O2102       O  0.99331012  0.57609520  0.06102383    -0.85800
O2103       O  0.99689775  0.57602122  0.93412621    -0.87100
Zr2104     Zr  0.99980141  0.00178380  0.09033536     2.83100
Zr2105     Zr  0.99816689  0.50091276  0.90891202     2.83500
Zr2106     Zr  0.55184874  0.99899427  0.00664079     2.84100
Zr2107     Zr  0.94710507  0.00261037  0.00440798     2.83400
Zr2108     Zr  0.99740071  0.55248741  0.99727227     2.84200
O2109       O  0.97137838  0.52651013  0.95357138    -1.07700
O2110       O  0.52627982  0.52458140  0.04377443    -1.07200
C2111       C  0.99402858  0.57003208  0.09898774     1.07400
C2112       C  0.99547878  0.57108822  0.89578724     1.10100
C2113       C  0.56938186  0.99360178  0.10804225     1.07600
C2114       C  0.92943588  0.99914080  0.10653619     1.08000
C2115       C  0.92807230  0.49833362  0.89386430     1.07600
C2116       C  0.56931039  0.50393700  0.89589809     1.07100
C2117       C  0.56715807  0.56551934  0.01556188     1.07500
C2118       C  0.92972844  0.56606072  0.00038191     1.07000
H2119       H  0.53789036  0.53948080  0.94340385     0.33700
O2120       O  0.52626418  0.52753608  0.95811744    -1.28800
H2121       H  0.95993382  0.53677848  0.05537929     0.33700
O2122       O  0.97161512  0.52579714  0.03908872    -1.30200
N2123       N  0.74943534  0.71122685  0.09690616    -0.35800
N2124       N  0.79206031  0.75018259  0.09582783    -0.56300
N2125       N  0.75076274  0.79003246  0.09171705    -0.35800
N2126       N  0.70827078  0.75118131  0.09736371    -0.56300
C2127       C  0.77107324  0.69609503  0.10428260     0.27800
C2128       C  0.72772678  0.69672661  0.10654080     0.27800
C2129       C  0.77260004  0.80510929  0.09800810     0.27800
C2130       C  0.72930354  0.80560989  0.09793683     0.27800
C2131       C  0.80613327  0.72836247  0.08568164     0.36400
C2132       C  0.80684788  0.77105059  0.08378897     0.36400
C2133       C  0.69327655  0.72971097  0.08861148     0.36400
C2134       C  0.69422589  0.77225540  0.08432351     0.36400
C2135       C  0.76314324  0.67183153  0.11944455    -0.21000
C2136       C  0.73569395  0.67228020  0.12109897    -0.21000
C2137       C  0.76496688  0.83045315  0.10936205    -0.21000
C2138       C  0.73749562  0.83078870  0.10919594    -0.21000
C2139       C  0.83036583  0.73541832  0.06844827    -0.22100
C2140       C  0.83083471  0.76252592  0.06733683    -0.22100
C2141       C  0.66929214  0.73721929  0.07095878    -0.22100
C2142       C  0.66988557  0.76427383  0.06828166    -0.22100
C2143       C  0.79719637  0.70221197  0.09166008    -0.17400
C2144       C  0.70121932  0.70347906  0.09634834    -0.17400
C2145       C  0.70300939  0.79861620  0.08749926    -0.17400
C2146       C  0.79872286  0.79766023  0.08717755    -0.17400
H2147       H  0.77579296  0.65516886  0.12680111     0.15500
H2148       H  0.72298326  0.65599479  0.12996101     0.15500
H2149       H  0.77785964  0.84726114  0.11502924     0.15500
H2150       H  0.72498992  0.84788404  0.11477254     0.15500
H2151       H  0.84586802  0.72246347  0.05703062     0.13700
H2152       H  0.84672166  0.77451610  0.05490635     0.13700
H2153       H  0.65327785  0.72456045  0.06034919     0.13700
H2154       H  0.65437469  0.77660199  0.05544695     0.13700
H2155       H  0.74938492  0.72826283  0.07944949     0.27000
H2156       H  0.75048397  0.77190007  0.07677820     0.27000
C2157       C  0.50113546  0.74643375  0.24790924    -0.01600
C2158       C  0.75083009  0.49969462  0.25489671    -0.01600
C2159       C  0.99924726  0.75262699  0.75440874    -0.01600
C2160       C  0.74884247  0.00013267  0.74799860    -0.01600
C2161       C  0.68299507  0.52169992  0.20298724    -0.27400
C2162       C  0.67340402  0.99644484  0.19005448     0.06300
C2163       C  0.69168635  0.97510149  0.19032267     0.25900
C2164       C  0.71733494  0.97793799  0.20742452    -0.11800
C2165       C  0.72485105  0.00096536  0.22927055    -0.25800
C2166       C  0.70786418  0.52370180  0.22309447     0.36700
C2167       C  0.64546133  0.99387334  0.17228858     0.06300
F2168       F  0.68444608  0.95079928  0.17655052    -0.19600
H2169       H  0.73034009  0.96082095  0.20769679     0.16100
F2170       F  0.71499248  0.54796796  0.23689873    -0.23300
H2171       H  0.67064043  0.53920982  0.20140537     0.17900
C2172       C  0.62313223  0.00772210  0.18847363     0.25900
C2173       C  0.59768959  0.00626653  0.16967200    -0.11800
C2174       C  0.59367913  0.99077996  0.13459812    -0.25800
C2175       C  0.61560443  0.97591274  0.11986100     0.36800
C2176       C  0.64092604  0.97782872  0.13788511    -0.27500
F2177       F  0.62613902  0.52354436  0.21716087    -0.19600
H2178       H  0.58225545  0.51990318  0.17512367     0.16100
F2179       F  0.61286233  0.96014521  0.08653432    -0.23300
H2180       H  0.65724243  0.96739509  0.12345248     0.17900
C2181       C  0.87699411  0.49444318  0.18513422    -0.27400
C2182       C  0.85397090  0.99502834  0.17108456     0.06300
C2183       C  0.86324431  0.97386105  0.14689040     0.25900
C2184       C  0.88867834  0.97468704  0.12882087    -0.11800
C2185       C  0.90579832  0.99652624  0.13414482    -0.25800
C2186       C  0.90203330  0.49509676  0.16507366     0.36700
C2187       C  0.82621324  0.99471709  0.18906002     0.06300
F2188       F  0.84703138  0.95303680  0.13841280    -0.19600
H2189       H  0.89462681  0.95857621  0.10896406     0.16100
F2190       F  0.92428595  0.48710680  0.18515802    -0.23300
H2191       H  0.87620021  0.48780936  0.21635359     0.17900
C2192       C  0.81822022  0.47691297  0.20538609     0.25900
C2193       C  0.79297784  0.47534058  0.22397017    -0.11800
C2194       C  0.77505122  0.99616968  0.22893503    -0.25800
C2195       C  0.78311401  0.01648834  0.20186661     0.36800
C2196       C  0.80861708  0.01611183  0.18357532    -0.27500
F2197       F  0.83472060  0.45565205  0.20699474    -0.19600
H2198       H  0.78781522  0.45680350  0.23792461     0.16100
F2199       F  0.76753470  0.03815500  0.19646714    -0.23300
H2200       H  0.81477341  0.03282062  0.16540846     0.17900
C2201       C  0.49027864  0.85212522  0.12553340    -0.27400
C2202       C  0.50052566  0.85077008  0.16507247     0.06300
C2203       C  0.02798652  0.86731170  0.14959007     0.25900
C2204       C  0.02790408  0.89277592  0.13222207    -0.11800
C2205       C  0.00467123  0.90853943  0.13203383    -0.25800
C2206       C  0.48768513  0.87636956  0.10555383     0.36700
C2207       C  0.50188361  0.82444817  0.18595579     0.06300
F2208       F  0.05102734  0.85316730  0.14932363    -0.19600
H2209       H  0.04588171  0.89989915  0.11759470     0.16100
F2210       F  0.47700022  0.87595640  0.06754480    -0.23300
H2211       H  0.48381191  0.83424269  0.11012205     0.17900
C2212       C  0.48931099  0.82069900  0.22345756     0.25900
C2213       C  0.48932524  0.79588535  0.24203117    -0.11800
C2214       C  0.50059404  0.77305486  0.22330583    -0.25800
C2215       C  0.01482154  0.78139629  0.18348504     0.36800
C2216       C  0.01564778  0.80695457  0.16583880    -0.27500
F2217       F  0.47612952  0.84093006  0.24182785    -0.19600
H2218       H  0.48019912  0.79477073  0.27175821     0.16100
F2219       F  0.02816134  0.76154716  0.16453801    -0.23300
H2220       H  0.02570292  0.80936637  0.13697757     0.17900
C2221       C  0.97021814  0.63593430  0.14160051    -0.27400
C2222       C  0.99245627  0.64443698  0.16439564     0.06300
C2223       C  0.51516565  0.62182311  0.17809138     0.25900
C2224       C  0.51451703  0.59622802  0.16105213    -0.11800
C2225       C  0.99161948  0.59324980  0.12701511    -0.25800
C2226       C  0.96979785  0.61077008  0.12307088     0.36700
C2227       C  0.99324653  0.67162326  0.18347931     0.06300
F2228       F  0.53631264  0.62856489  0.20187011    -0.19600
H2229       H  0.53097437  0.58282263  0.16667761     0.16100
F2230       F  0.94825273  0.60374349  0.10029976    -0.23300
H2231       H  0.95317377  0.64888768  0.13783675     0.17900
C2232       C  0.98746530  0.69497672  0.16164113     0.25900
C2233       C  0.99000011  0.72022923  0.18020846    -0.11800
C2234       C  0.49940616  0.71944471  0.22436412    -0.25800
C2235       C  0.50387005  0.69578019  0.24647239     0.36800
C2236       C  0.50194246  0.67093553  0.22821781    -0.27500
F2237       F  0.97974231  0.69346142  0.12212709    -0.19600
H2238       H  0.98483266  0.73748257  0.16264985     0.16100
F2239       F  0.51049249  0.69645237  0.28641708    -0.23300
H2240       H  0.50527587  0.65367795  0.24688019     0.17900
C2241       C  0.64532049  0.84637845  0.08747415    -0.27400
C2242       C  0.64770877  0.85735157  0.04848997     0.06300
C2243       C  0.66931107  0.85014352  0.02358591     0.25900
C2244       C  0.68764545  0.83140208  0.03702070    -0.11800
C2245       C  0.68465761  0.81984851  0.07536928    -0.25800
C2246       C  0.66373162  0.82768397  0.10090587     0.36700
C2247       C  0.62717954  0.87573439  0.03369458     0.06300
F2248       F  0.67202181  0.86039298  0.98575092    -0.19600
H2249       H  0.70383521  0.82536711  0.01719287     0.16100
F2250       F  0.66103342  0.81698349  0.13842845    -0.23300
H2251       H  0.62902720  0.85214003  0.10728298     0.17900
C2252       C  0.60009994  0.86858426  0.03472069     0.25900
C2253       C  0.58054891  0.88670676  0.02333722    -0.11800
C2254       C  0.58773088  0.91212455  0.01018883    -0.25800
C2255       C  0.61504847  0.91855490  0.00660921     0.36800
C2256       C  0.63453612  0.90056405  0.01878216    -0.27500
F2257       F  0.59260596  0.84406334  0.04681287    -0.19600
H2258       H  0.55975551  0.88106006  0.02609225     0.16100
F2259       F  0.62300583  0.94232073  0.99197172    -0.23300
H2260       H  0.65539067  0.90622533  0.01734736     0.17900
C2261       C  0.82976524  0.85286325  0.02659376    -0.27400
C2262       C  0.85310628  0.85776812  0.04891871     0.06300
C2263       C  0.85811322  0.84365164  0.08479069     0.25900
C2264       C  0.84030421  0.82414971  0.09744855    -0.11800
C2265       C  0.81730593  0.81875338  0.07455891    -0.25800
C2266       C  0.81192418  0.83341842  0.03926890     0.36700
C2267       C  0.87233242  0.87756298  0.03472038     0.06300
F2268       F  0.88006455  0.84900753  0.10768816    -0.19600
H2269       H  0.84439552  0.81321810  0.12499151     0.16100
F2270       F  0.78959953  0.82860484  0.01688419    -0.23300
H2271       H  0.82563413  0.86381566  0.99907566     0.17900
C2272       C  0.89784017  0.86982144  0.02175443     0.25900
C2273       C  0.91681147  0.88887891  0.01155494    -0.11800
C2274       C  0.91057079  0.91596094  0.01411949    -0.25800
C2275       C  0.88441445  0.92349629  0.02547966     0.36800
C2276       C  0.86553604  0.90436118  0.03561980    -0.27500
F2277       F  0.90440458  0.84381882  0.01942977    -0.19600
H2278       H  0.93656027  0.88240409  0.00247184     0.16100
F2279       F  0.87725352  0.94930838  0.02858925    -0.23300
H2280       H  0.84582830  0.91048752  0.04550351     0.17900
C2281       C  0.89600887  0.63132746  0.02458849    -0.27400
C2282       C  0.86995530  0.62294801  0.03317408     0.06300
C2283       C  0.86290589  0.59643552  0.02664660     0.25900
C2284       C  0.88215496  0.57827155  0.01386315    -0.11800
C2285       C  0.90874791  0.58625636  0.00725941    -0.25800
C2286       C  0.91529731  0.61327058  0.01170644     0.36700
C2287       C  0.85053499  0.64186756  0.05011161     0.06300
F2288       F  0.83778526  0.58783878  0.03475230    -0.19600
H2289       H  0.87638415  0.55772734  0.01077868     0.16100
F2290       F  0.94048894  0.62225472  0.00524942    -0.23300
H2291       H  0.90155754  0.65187188  0.02872629     0.17900
C2292       C  0.85669645  0.65647340  0.08543282     0.25900
C2293       C  0.83891775  0.67557202  0.09989066    -0.11800
C2294       C  0.81478331  0.68009199  0.07945013    -0.25800
C2295       C  0.80799561  0.66450524  0.04544564     0.36800
C2296       C  0.82588486  0.64565378  0.03073226    -0.27500
F2297       F  0.87985564  0.65216436  0.10590800    -0.19600
H2298       H  0.84412707  0.68720083  0.12650485     0.16100
F2299       F  0.78441083  0.66814378  0.02577868    -0.23300
H2300       H  0.82078718  0.63443406  0.00365446     0.17900
C2301       C  0.60189978  0.63058550  0.03760425    -0.27400
C2302       C  0.62568601  0.62189114  0.05560005     0.06300
C2303       C  0.63067187  0.59471899  0.05907626     0.25900
C2304       C  0.61173562  0.57649201  0.04525538    -0.11800
C2305       C  0.58769466  0.58510743  0.02736687    -0.25800
C2306       C  0.58308067  0.61241166  0.02330147     0.36700
C2307       C  0.64572343  0.64143737  0.06858252     0.06300
F2308       F  0.65365747  0.58587591  0.07628272    -0.19600
H2309       H  0.61571591  0.55561569  0.04922637     0.16100
F2310       F  0.56065261  0.62158385  0.00492044    -0.23300
H2311       H  0.59814371  0.65153504  0.03402432     0.17900
C2312       C  0.67004596  0.64328239  0.04771300     0.25900
C2313       C  0.68800872  0.66337104  0.05739008    -0.11800
C2314       C  0.68213967  0.68167489  0.08833459    -0.25800
C2315       C  0.65810280  0.67942505  0.11006090     0.36800
C2316       C  0.63987996  0.65948588  0.09992151    -0.27500
F2317       F  0.67587473  0.62634124  0.01682351    -0.19600
H2318       H  0.70639154  0.66499997  0.04021608     0.16100
F2319       F  0.65218938  0.69668916  0.14049559    -0.23300
H2320       H  0.62111552  0.65822242  0.11617718     0.17900
C2321       C  0.80894720  0.98114950  0.81738417    -0.27400
C2322       C  0.82331937  0.49476573  0.81876002     0.06300
C2323       C  0.80737650  0.51765317  0.81965143     0.25900
C2324       C  0.78213322  0.51783753  0.80082113    -0.11800
C2325       C  0.77294362  0.49591895  0.77774198    -0.25800
C2326       C  0.78371258  0.98089639  0.79850218     0.36700
C2327       C  0.85131232  0.49474979  0.83509600     0.06300
F2328       F  0.81629629  0.53996049  0.83833628    -0.19600
H2329       H  0.77082954  0.53607594  0.80108131     0.16100
F2330       F  0.76907438  0.95833394  0.80015810    -0.23300
H2331       H  0.81588789  0.96293142  0.83077208     0.17900
C2332       C  0.85717982  0.98856427  0.87331476     0.25900
C2333       C  0.88246016  0.98768131  0.89145578    -0.11800
C2334       C  0.90411282  0.49524886  0.86749579    -0.25800
C2335       C  0.89596775  0.51481022  0.83993070     0.36800
C2336       C  0.86987795  0.51436217  0.82360512    -0.27500
F2337       F  0.83698828  0.97551485  0.89199957    -0.19600
H2338       H  0.88475246  0.97594751  0.91871630     0.16100
F2339       F  0.91241730  0.53531289  0.83114654    -0.23300
H2340       H  0.86394841  0.52972153  0.80263956     0.17900
C2341       C  0.68497285  0.52848372  0.80066681    -0.27400
C2342       C  0.67261506  0.50560155  0.81561538     0.06300
C2343       C  0.68283369  0.97748594  0.80173970     0.25900
C2344       C  0.70772328  0.97591126  0.78207510    -0.11800
C2345       C  0.72356615  0.50290617  0.77594241    -0.25800
C2346       C  0.71034273  0.52746168  0.78253821     0.36700
C2347       C  0.64475470  0.50668477  0.83264905     0.06300
F2348       F  0.66651667  0.95604782  0.80111059    -0.19600
H2349       H  0.71300278  0.95706135  0.76891675     0.16100
F2350       F  0.72202660  0.55083024  0.77318822    -0.23300
H2351       H  0.67484545  0.54735952  0.80258486     0.17900
C2352       C  0.63741434  0.52635628  0.86096787     0.25900
C2353       C  0.61196159  0.52628069  0.87865235    -0.11800
C2354       C  0.59293051  0.50680493  0.86868771    -0.25800
C2355       C  0.59918429  0.99662591  0.84140822     0.36800
C2356       C  0.62433982  0.99526039  0.82194936    -0.27500
F2357       F  0.65538021  0.54473153  0.87369542    -0.19600
H2358       H  0.60747399  0.54089296  0.90188671     0.16100
F2359       F  0.57710860  0.98795676  0.82143074    -0.23300
H2360       H  0.62529692  0.98786114  0.79103125     0.17900
C2361       C  0.98368177  0.64360592  0.86956843    -0.27400
C2362       C  0.50768721  0.64689198  0.83526900     0.06300
C2363       C  0.50337322  0.62259057  0.81455971     0.25900
C2364       C  0.50202809  0.59842547  0.83595095    -0.11800
C2365       C  0.99308870  0.59581733  0.87046956    -0.25800
C2366       C  0.98192196  0.61891030  0.88846994     0.36700
C2367       C  0.50640454  0.67336728  0.81435963     0.06300
F2368       F  0.50090752  0.62206285  0.77347643    -0.19600
H2369       H  0.49807565  0.58032538  0.81927942     0.16100
F2370       F  0.96939650  0.61780358  0.92503985    -0.23300
H2371       H  0.97538051  0.66079906  0.88475098     0.17900
C2372       C  0.48575735  0.67912939  0.78694595     0.25900
C2373       C  0.48399611  0.70392517  0.76850502    -0.11800
C2374       C  0.99749659  0.72547836  0.77780037    -0.25800
C2375       C  0.01420471  0.71887116  0.81109532     0.36800
C2376       C  0.01318657  0.69349862  0.82898325    -0.27500
F2377       F  0.46658557  0.66095187  0.77836971    -0.19600
H2378       H  0.46847741  0.70579169  0.74589559     0.16100
F2379       F  0.03208263  0.73660431  0.82593819    -0.23300
H2380       H  0.02551903  0.68948749  0.85532305     0.17900
C2381       C  0.51946941  0.87492408  0.82706810    -0.27400
C2382       C  0.99850494  0.85888158  0.83358026     0.06300
C2383       C  0.97968957  0.86428754  0.86432557     0.25900
C2384       C  0.97897170  0.88895918  0.88371675    -0.11800
C2385       C  0.99658661  0.90944886  0.87298813    -0.25800
C2386       C  0.51928942  0.90036896  0.84490691     0.36700
C2387       C  0.99984935  0.83166536  0.81441717     0.06300
F2388       F  0.96168454  0.84572621  0.87578902    -0.19600
H2389       H  0.96477329  0.89190241  0.90818333     0.16100
F2390       F  0.54072807  0.91642403  0.83986697    -0.23300
H2391       H  0.53631484  0.86909648  0.80842129     0.17900
C2392       C  0.50060154  0.82706055  0.77309025     0.25900
C2393       C  0.50052331  0.80206781  0.75484058    -0.11800
C2394       C  0.99905921  0.77963101  0.77821231    -0.25800
C2395       C  0.99535284  0.78318341  0.82049777     0.36800
C2396       C  0.99660288  0.80864538  0.83813819    -0.27500
F2397       F  0.50161826  0.84878441  0.74910883    -0.19600
H2398       H  0.50167933  0.80102734  0.72197130     0.16100
F2399       F  0.98909976  0.76267708  0.84496265    -0.23300
H2400       H  0.99454730  0.81030477  0.87080180     0.17900
C2401       C  0.88642926  0.78144027  0.64716538    -0.27400
C2402       C  0.89584003  0.75905110  0.66778106     0.06300
C2403       C  0.87910814  0.73672762  0.67046602     0.25900
C2404       C  0.85383383  0.73654557  0.65186435    -0.11800
C2405       C  0.84467388  0.75867546  0.63049675    -0.25800
C2406       C  0.86112456  0.78125757  0.62857568     0.36700
C2407       C  0.92249751  0.75915851  0.68814308     0.06300
F2408       F  0.88774447  0.71465969  0.68971747    -0.19600
H2409       H  0.84196331  0.71864584  0.65243366     0.16100
F2410       F  0.85292038  0.80289140  0.60771605    -0.23300
H2411       H  0.89875956  0.79898417  0.64526660     0.17900
C2412       C  0.94665482  0.76074678  0.66627903     0.25900
C2413       C  0.97154043  0.75904839  0.68652651    -0.11800
C2414       C  0.97281641  0.75544721  0.72909183    -0.25800
C2415       C  0.94810532  0.75500653  0.75051532     0.36800
C2416       C  0.92364151  0.75661237  0.73031918    -0.27500
F2417       F  0.94615390  0.76317398  0.62521625    -0.19600
H2418       H  0.98957525  0.76072088  0.66873638     0.16100
F2419       F  0.94752181  0.75204225  0.79149031    -0.23300
H2420       H  0.90534285  0.75558464  0.74782150     0.17900
C2421       C  0.57498694  0.76438644  0.71819144    -0.27400
C2422       C  0.57878845  0.74543303  0.68778784     0.06300
C2423       C  0.55683884  0.72897983  0.67770986     0.25900
C2424       C  0.53183872  0.73206562  0.69719930    -0.11800
C2425       C  0.52757534  0.75157403  0.72750155    -0.25800
C2426       C  0.55058957  0.76704735  0.73842892     0.36700
C2427       C  0.60560471  0.74354154  0.66701819     0.06300
F2428       F  0.55979171  0.70896667  0.65043672    -0.19600
H2429       H  0.51594646  0.71837907  0.68960073     0.16100
F2430       F  0.55105214  0.78360740  0.77098958    -0.23300
H2431       H  0.59135865  0.77714610  0.72723423     0.17900
C2432       C  0.60710649  0.74101100  0.62462860     0.25900
C2433       C  0.63178541  0.74049135  0.60499903    -0.11800
C2434       C  0.65626554  0.74383633  0.62620136    -0.25800
C2435       C  0.65496224  0.74691450  0.66872923     0.36800
C2436       C  0.62994976  0.74643376  0.68882934    -0.27500
F2437       F  0.58464918  0.74079440  0.60143622    -0.19600
H2438       H  0.63131729  0.73833082  0.57223251     0.16100
F2439       F  0.67753147  0.75118431  0.69072680    -0.23300
H2440       H  0.62961345  0.74876564  0.72156825     0.17900
C2441       C  0.73159472  0.55916612  0.67806662    -0.27400
C2442       C  0.75421691  0.57570565  0.68170302     0.06300
C2443       C  0.77689988  0.56507341  0.70091179     0.25900
C2444       C  0.77631307  0.53954819  0.71791817    -0.11800
C2445       C  0.75250206  0.52424549  0.71924134    -0.25800
C2446       C  0.73093287  0.53372987  0.69540896     0.36700
C2447       C  0.75442207  0.60304232  0.66300653     0.06300
F2448       F  0.79994282  0.57917276  0.70275801    -0.19600
H2449       H  0.79476832  0.53220315  0.73056696     0.16100
F2450       F  0.70807394  0.51943892  0.69208324    -0.23300
H2451       H  0.71385742  0.56625312  0.66271651     0.17900
C2452       C  0.74446310  0.60662913  0.62350255     0.25900
C2453       C  0.74397349  0.63164816  0.60572393    -0.11800
C2454       C  0.75392680  0.65448341  0.62571773    -0.25800
C2455       C  0.76426433  0.65113041  0.66532536     0.36800
C2456       C  0.76439800  0.62570350  0.68370671    -0.27500
F2457       F  0.73598893  0.58565764  0.60100618    -0.19600
H2458       H  0.73595208  0.63291626  0.57518024     0.16100
F2459       F  0.77502967  0.67197823  0.68565749    -0.23300
H2460       H  0.77231672  0.62373457  0.71419504     0.17900
C2461       C  0.77236292  0.93430232  0.69538279    -0.27400
C2462       C  0.74793071  0.92388768  0.68162614     0.06300
C2463       C  0.72545178  0.94076454  0.68240773     0.25900
C2464       C  0.72726547  0.96648303  0.69849725    -0.11800
C2465       C  0.75046016  0.97521311  0.71906977    -0.25800
C2466       C  0.77391998  0.95983835  0.71247876     0.36700
C2467       C  0.74644221  0.89637060  0.66387193     0.06300
F2468       F  0.70113307  0.93195676  0.67005138    -0.19600
H2469       H  0.70936560  0.97850306  0.69909704     0.16100
F2470       F  0.79861116  0.96954087  0.72080818    -0.23300
H2471       H  0.79049054  0.92277848  0.69224020     0.17900
C2472       C  0.73308060  0.89191870  0.62687571     0.25900
C2473       C  0.73196088  0.86664908  0.60966333    -0.11800
C2474       C  0.74515254  0.84480232  0.62729144    -0.25800
C2475       C  0.75856701  0.84899391  0.66443818     0.36800
C2476       C  0.75904797  0.87449383  0.68259566    -0.27500
F2477       F  0.72254195  0.91234276  0.60557922    -0.19600
H2478       H  0.72161969  0.86450069  0.58085590     0.16100
F2479       F  0.77240875  0.82899399  0.68191680    -0.23300
H2480       H  0.76972918  0.87726526  0.71096271     0.17900
C2481       C  0.89006462  0.65718801  0.46483970    -0.27400
C2482       C  0.88364792  0.63029304  0.46352268     0.06300
C2483       C  0.85842300  0.62184362  0.47662918     0.25900
C2484       C  0.83937810  0.64034750  0.48907614    -0.11800
C2485       C  0.84510656  0.66760953  0.48825830    -0.25800
C2486       C  0.87100956  0.67578888  0.47686766     0.36700
C2487       C  0.90309100  0.61121647  0.44727886     0.06300
F2488       F  0.85214226  0.59572816  0.47679592    -0.19600
H2489       H  0.81983687  0.63331225  0.49808937     0.16100
F2490       F  0.87768776  0.70175797  0.47531161    -0.23300
H2491       H  0.90957537  0.66385890  0.45500474     0.17900
C2492       C  0.89742283  0.59687033  0.41157650     0.25900
C2493       C  0.91539645  0.57785001  0.39745478    -0.11800
C2494       C  0.93906302  0.57291130  0.41893977    -0.25800
C2495       C  0.94524762  0.58807129  0.45367061     0.36800
C2496       C  0.92734403  0.60718432  0.46763324    -0.27500
F2497       F  0.87442984  0.60115165  0.39067197    -0.19600
H2498       H  0.91052927  0.56635535  0.37055269     0.16100
F2499       F  0.96803070  0.58353482  0.47500823    -0.23300
H2500       H  0.93198257  0.61828624  0.49501721     0.17900
C2501       C  0.65500807  0.61839025  0.45977292    -0.27400
C2502       C  0.62812833  0.62460631  0.46755869     0.06300
C2503       C  0.62177964  0.64867155  0.48680106     0.25900
C2504       C  0.64198173  0.66615251  0.49755000    -0.11800
C2505       C  0.66872680  0.66047701  0.48804163    -0.25800
C2506       C  0.67512788  0.63645148  0.46878189     0.36700
C2507       C  0.60691069  0.60618570  0.45470831     0.06300
F2508       F  0.59604889  0.65599250  0.49346743    -0.19600
H2509       H  0.63650494  0.68466464  0.51202905     0.16100
F2510       F  0.70044466  0.63099784  0.45650178    -0.23300
H2511       H  0.66045790  0.59974093  0.44576800     0.17900
C2512       C  0.60818941  0.59334939  0.41660395     0.25900
C2513       C  0.58880734  0.57492277  0.40574065    -0.11800
C2514       C  0.56767176  0.56966126  0.43214919    -0.31400
C2515       C  0.56562781  0.58311069  0.46935549     0.36800
C2516       C  0.58537241  0.60098289  0.48081690    -0.27500
F2517       F  0.62803348  0.59866116  0.38976957    -0.19600
H2518       H  0.59034991  0.56454478  0.37693000     0.16100
F2519       F  0.54509487  0.57811727  0.49514440    -0.23300
H2520       H  0.58415134  0.61019222  0.51055503     0.17900
C2521       C  0.64445284  0.87757570  0.47637606    -0.27400
C2522       C  0.62024584  0.86880425  0.45952548     0.06300
C2523       C  0.61473790  0.84155900  0.45854836     0.25900
C2524       C  0.63390910  0.82342938  0.47200009    -0.11800
C2525       C  0.65880718  0.83213285  0.48703703    -0.25800
C2526       C  0.66340462  0.85954134  0.49057768     0.36700
C2527       C  0.60102727  0.88837600  0.44323651     0.06300
F2528       F  0.59135219  0.83241326  0.44291609    -0.19600
H2529       H  0.62961837  0.80252088  0.46904669     0.16100
F2530       F  0.68633642  0.86901633  0.50725729    -0.23300
H2531       H  0.64870341  0.89853767  0.47843693     0.17900
C2532       C  0.57507939  0.89028011  0.45915805     0.25900
C2533       C  0.55792038  0.91031700  0.44621246    -0.11800
C2534       C  0.56600946  0.92843767  0.41649790    -0.25800
C2535       C  0.59159167  0.92590278  0.39919951     0.36800
C2536       C  0.60905027  0.90617933  0.41289425    -0.27500
F2537       F  0.56665235  0.87338753  0.48835040    -0.19600
H2538       H  0.53829836  0.91198863  0.45986001     0.16100
F2539       F  0.59965600  0.94246823  0.36929112    -0.23300
H2540       H  0.62888954  0.90478382  0.39991074     0.17900
C2541       C  0.91658930  0.90375666  0.48144700    -0.27400
C2542       C  0.89289569  0.89898096  0.45985410     0.06300
C2543       C  0.88889711  0.91091383  0.42181572     0.25900
C2544       C  0.90820434  0.92792897  0.40614281    -0.11800
C2545       C  0.93173547  0.93288315  0.42804342    -0.25800
C2546       C  0.93601024  0.92043520  0.46555027     0.36700
C2547       C  0.87328852  0.88008084  0.47576380     0.06300
F2548       F  0.86671364  0.90551601  0.39944016    -0.19600
H2549       H  0.90479271  0.93742640  0.37715634     0.16100
F2550       F  0.95874521  0.92488984  0.48711246    -0.23300
H2551       H  0.92000364  0.89453068  0.51064895     0.17900
C2552       C  0.88123502  0.85417339  0.48449199     0.25900
C2553       C  0.86228372  0.83532914  0.49485949    -0.11800
C2554       C  0.83500402  0.84189617  0.49648409    -0.25800
C2555       C  0.82728099  0.86843523  0.49050190     0.36800
C2556       C  0.84638466  0.88730668  0.48000790    -0.27500
F2557       F  0.90712200  0.84663318  0.48031407    -0.19600
H2558       H  0.86898980  0.81524153  0.49973624     0.16100
F2559       F  0.80130084  0.87602927  0.49296590    -0.23300
H2560       H  0.84011038  0.90741654  0.47406686     0.17900
C2561       C  0.62935199  0.75904424  0.31440760    -0.27400
C2562       C  0.60565417  0.75011296  0.33309403     0.06300
C2563       C  0.60754305  0.73848660  0.37158345     0.25900
C2564       C  0.63233876  0.73630585  0.39104392    -0.11800
C2565       C  0.65614761  0.74611630  0.37333124    -0.25800
C2566       C  0.65430935  0.75732463  0.33436661     0.36700
C2567       C  0.57940624  0.75098085  0.31123914     0.06300
F2568       F  0.58544642  0.72872269  0.39016631    -0.19600
H2569       H  0.63273371  0.72717367  0.42076106     0.16100
F2570       F  0.67629037  0.76751366  0.31621572    -0.23300
H2571       H  0.62842073  0.76781071  0.28447510     0.17900
C2572       C  0.55676168  0.76381415  0.32746087     0.25900
C2573       C  0.53207596  0.76308480  0.30670532    -0.11800
C2574       C  0.52857558  0.74774098  0.27099672    -0.25800
C2575       C  0.55225495  0.73681020  0.25357751     0.36800
C2576       C  0.57688686  0.73822918  0.27366294    -0.27500
F2577       F  0.55859356  0.77748533  0.36298913    -0.19600
H2578       H  0.51550045  0.77419634  0.31915970     0.16100
F2579       F  0.55214460  0.72484344  0.21658601    -0.23300
H2580       H  0.59415157  0.72887918  0.25989228     0.17900
C2581       C  0.87528257  0.73558425  0.31811609    -0.27400
C2582       C  0.89722172  0.75070491  0.33226889     0.06300
C2583       C  0.89314106  0.76757951  0.36577783     0.25900
C2584       C  0.86818722  0.76886078  0.38491385    -0.11800
C2585       C  0.84636945  0.75340262  0.37155102    -0.25800
C2586       C  0.85011536  0.73686307  0.33747227     0.36700
C2587       C  0.92394230  0.74960309  0.31137282     0.06300
F2588       F  0.91320169  0.78321745  0.37984328    -0.19600
H2589       H  0.86603111  0.78181546  0.41107002     0.16100
F2590       F  0.83002519  0.72098461  0.32418288    -0.23300
H2591       H  0.87781691  0.72228631  0.29249268     0.17900
C2592       C  0.92573138  0.75291759  0.26921744     0.25900
C2593       C  0.95057155  0.75262419  0.24971844    -0.11800
C2594       C  0.97504837  0.74933082  0.27107978    -0.25800
C2595       C  0.97301553  0.74497570  0.31361499     0.36800
C2596       C  0.94787611  0.74558610  0.33324087    -0.27500
F2597       F  0.90340922  0.75731280  0.24674213    -0.19600
H2598       H  0.95075390  0.75551707  0.21712051     0.16100
F2599       F  0.99460950  0.73868917  0.33644155    -0.23300
H2600       H  0.94705439  0.74228545  0.36572637     0.17900
C2601       C  0.76963063  0.94333284  0.33309621    -0.27400
C2602       C  0.74779338  0.92585191  0.32936381     0.06300
C2603       C  0.72464263  0.93539364  0.31008453     0.25900
C2604       C  0.72429768  0.96035019  0.29188864    -0.11800
C2605       C  0.74766078  0.97605630  0.28887521    -0.25800
C2606       C  0.76926537  0.96843217  0.31431440     0.36700
C2607       C  0.74849629  0.89805588  0.34583149     0.06300
F2608       F  0.70249852  0.92003043  0.30679318    -0.19600
H2609       H  0.70551436  0.96665992  0.27905220     0.16100
F2610       F  0.79104501  0.98425280  0.31809200    -0.23300
H2611       H  0.78719756  0.93740463  0.35000607     0.17900
C2612       C  0.76977674  0.88039689  0.33762548     0.25900
C2613       C  0.76899295  0.85394939  0.35149967    -0.11800
C2614       C  0.74715551  0.84460323  0.37422621    -0.25800
C2615       C  0.72623025  0.86247495  0.38283339     0.36800
C2616       C  0.72686056  0.88854782  0.36870854    -0.27500
F2617       F  0.79143992  0.88872479  0.31649987    -0.19600
H2618       H  0.78607000  0.84122478  0.34633699     0.16100
F2619       F  0.70570503  0.85508233  0.40724257    -0.23300
H2620       H  0.71055864  0.90163410  0.37677310     0.17900
C2621       C  0.78032237  0.61125407  0.36620198    -0.27400
C2622       C  0.75966331  0.60309728  0.33998613     0.06300
C2623       C  0.74010853  0.62193802  0.32909803     0.25900
C2624       C  0.74084074  0.64795710  0.34500583    -0.11800
C2625       C  0.76095189  0.65574350  0.37246197    -0.25800
C2626       C  0.78086168  0.63699399  0.38248436     0.36700
C2627       C  0.75878014  0.57517730  0.32375937     0.06300
F2628       F  0.72006847  0.61506257  0.30330913    -0.19600
H2629       H  0.72483148  0.66152230  0.33766030     0.16100
F2630       F  0.80027856  0.64324337  0.40981004    -0.23300
H2631       H  0.79561374  0.59733717  0.37535085     0.17900
C2632       C  0.78095924  0.56402655  0.30395768     0.25900
C2633       C  0.77908869  0.53917849  0.28495084    -0.11800
C2634       C  0.75471183  0.52472829  0.28336022    -0.25800
C2635       C  0.73406887  0.53412792  0.30917455     0.36800
C2636       C  0.73577011  0.55934823  0.32777152    -0.27500
F2637       F  0.80427007  0.57763794  0.30125733    -0.19600
H2638       H  0.79707850  0.53174235  0.27089247     0.16100
F2639       F  0.71118664  0.52004664  0.31348097    -0.23300
H2640       H  0.71882512  0.56674038  0.34482759     0.17900
loop_ 
_geom_bond_atom_site_label_1 
_geom_bond_atom_site_label_2 
_geom_bond_distance 
_geom_bond_site_symmetry_2 
_ccdc_geom_bond_type 
O1          Zr37   2.527       .  S
O1           C12   1.309       .  A
O2          Zr36   2.533       .  S
O2           C13   1.310       .  A
O3           Zr9   2.441       .  S
O3           C14   1.292       .  A
O4           Zr9   2.433       .  S
O4           C15   1.289       .  A
O5          Zr39   2.411       .  S
O5           C15   1.287       .  A
O6          Zr38   2.423       .  S
O6           C14   1.287       .  A
O7           Zr9   2.407       .  S
O7           C13   1.287       .  A
O8           Zr9   2.389       .  S
O8           C12   1.283       .  A
Zr9          O10   2.331       .  S
Zr9          O11   2.332       .  S
Zr9          O19   2.340       .  S
Zr9          O17   2.333       .  S
O10         Zr36   2.364       .  S
O10         Zr39   2.335       .  S
O11         Zr37   2.355       .  S
O11         Zr38   2.320       .  S
C12         C645   1.487       .  S
C13         C474   1.507       .  S
C14         C505   1.485       .  S
C15         C525   1.475       .  S
H16          O17   0.979       .  S
O17         Zr36   2.371       .  S
O17         Zr38   2.337       .  S
H18          O19   0.965       .  S
O19         Zr37   2.367       .  S
O19         Zr39   2.340       .  S
O20         Zr36   2.527       .  S
O20          C43   1.310       .  A
O21         Zr37   2.515       .  S
O21          C44   1.307       .  A
O22         Zr38   2.377       .  S
O22          C45   1.282       .  A
O23         Zr39   2.421       .  S
O23          C46   1.289       .  A
O24         Zr39   2.412       .  S
O24          C47   1.288       .  A
O25         Zr38   2.385       .  S
O25          C48   1.282       .  A
O26         Zr40   2.428       .  S
O26          C49   1.289       .  A
O27         Zr40   2.432       .  S
O27          C50   1.289       .  A
O28         Zr38   2.417       .  S
O28          C49   1.287       .  A
O29         Zr39   2.433       .  S
O29          C50   1.291       .  A
O30         Zr36   2.528       .  S
O30          C45   1.309       .  A
O31         Zr37   2.524       .  S
O31          C48   1.308       .  A
O32         Zr37   2.502       .  S
O32          C47   1.304       .  A
O33         Zr36   2.515       .  S
O33          C46   1.308       .  A
O34         Zr40   2.411       .  S
O34          C43   1.288       .  A
O35         Zr40   2.420       .  S
O35          C44   1.288       .  A
Zr36         O42   2.371       .  S
Zr36         O54   2.381       .  S
Zr37         O41   2.364       .  S
Zr37         O52   2.356       .  S
Zr38         O42   2.334       .  S
Zr38         O52   2.327       .  S
Zr39         O41   2.326       .  S
Zr39         O54   2.333       .  S
Zr40         O41   2.328       .  S
Zr40         O42   2.343       .  S
Zr40         O54   2.344       .  S
Zr40         O52   2.334       .  S
C43         C494   1.498       .  S
C44         C634   1.495       .  S
C45         C425   1.506       .  S
C46         C454   1.500       .  S
C47         C585   1.492       .  S
C48         C605   1.507       .  S
C49         C574   1.478       .  S
C50         C545   1.488       .  S
H51          O52   0.965       .  S
H53          O54   0.970       .  S
N55          H87   1.040       .  S
N55          C59   1.352   1_655  A
N55        C1380   1.350       .  A
N56          C64   1.349   1_565  A
N56         C723   1.349       .  A
N57          H88   1.039       .  S
N57          C61   1.349       .  A
N57        C1382   1.349   1_455  A
N58          C66   1.354   1_565  A
N58         C725   1.353       .  A
C59          C67   1.386       .  A
C59          C75   1.413       .  A
C60        N1375   1.348       .  A
C60          C76   1.408       .  A
C60          C68   1.387       .  A
C61          C69   1.387       .  A
C61          C78   1.410       .  A
C62        N1377   1.351       .  A
C62          C77   1.410       .  A
C62          C70   1.386       .  A
C63         N716   1.349       .  A
C63          C75   1.411       .  A
C63          C71   1.388       .  A
C64          C78   1.409       .  A
C64          C72   1.386       .  A
C65         N718   1.348       .  A
C65          C73   1.387       .  A
C65          C76   1.409       .  A
C66          C74   1.385       .  A
C66          C77   1.415       .  A
C67        C1388   1.379   1_455  A
C67          H79   1.082       .  S
C68        C1387   1.376       .  A
C68          H80   1.082       .  S
C69        C1390   1.376   1_455  A
C69          H81   1.082       .  S
C70        C1389   1.376       .  A
C70          H82   1.082       .  S
C71         C732   1.374       .  A
C71          H83   1.082       .  S
C72         C731   1.372   1_545  A
C72          H84   1.082       .  S
C73         C734   1.370       .  A
C73          H85   1.082       .  S
C74         C733   1.375   1_545  A
C74          H86   1.082       .  S
C75         C554   1.486       .  S
C76         C565   1.471       .  S
C77         C514   1.484       .  S
C78         C534   1.478       .  S
O89        Zr785   2.527       .  S
O89         C100   1.310       .  A
O90        Zr124   2.498       .  S
O90         C101   1.304       .  A
O91       Zr1417   2.439   1_455  S
O91         C102   1.292       .  A
O92         Zr97   2.427       .  S
O92         C103   1.289   1_556  A
O93        Zr127   2.410   1_554  S
O93         C103   1.285       .  A
O94        Zr126   2.416       .  S
O94         C102   1.286       .  A
O95         Zr97   2.424   1_554  S
O95         C101   1.290       .  A
O96         Zr97   2.413       .  S
O96         C100   1.287       .  A
Zr97       O1411   2.418       .  S
Zr97         O98   2.336   1_556  S
Zr97        O107   2.338       .  S
Zr97       O1419   2.342       .  S
Zr97       O1425   2.331   1_556  S
O98        Zr124   2.368       .  S
O98        Zr127   2.338   1_554  S
O99        Zr126   2.332       .  S
O99       Zr1417   2.341   1_455  S
O99       Zr2105   2.367   1_455  S
C100        C405   1.493       .  S
C101        C225   1.491       .  S
C102        C274   1.481   1_556  S
C103        C294   1.478       .  S
H104        O105   0.967       .  S
O105       Zr126   2.334   1_554  S
O105      Zr1417   2.336   1_454  S
O105      Zr1444   2.365   1_455  S
H106        O107   0.970       .  S
O107       Zr127   2.328       .  S
O107       Zr785   2.368       .  S
O108       Zr784   2.527   1_545  S
O108        C131   1.310       .  A
O109       Zr125   2.505       .  S
O109        C132   1.306       .  A
O110       Zr126   2.398   1_554  S
O110        C133   1.285       .  A
O111       Zr127   2.410   1_554  S
O111        C134   1.288       .  A
O112       Zr787   2.417   1_546  S
O112        C135   1.289       .  A
O113       Zr786   2.409   1_556  S
O113        C136   1.287       .  A
O114      Zr1448   2.427   1_455  S
O114        C137   1.289       .  A
O115       Zr128   2.423       .  S
O115        C138   1.288       .  A
O116       Zr786   2.413       .  S
O116        C137   1.286       .  A
O117       Zr787   2.420   1_545  S
O117        C138   1.288       .  A
O118      Zr1444   2.546   1_455  S
O118        C133   1.313       .  A
O119      Zr1445   2.526   1_455  S
O119        C136   1.309       .  A
O120       Zr125   2.532       .  S
O120        C135   1.311       .  A
O121       Zr124   2.534       .  S
O121        C134   1.310       .  A
O122       Zr128   2.399       .  S
O122        C131   1.284       .  A
O123       Zr128   2.430   1_556  S
O123        C132   1.291       .  A
Zr124       O768   2.510       .  S
Zr124      O1438   2.524       .  S
Zr124      O1425   2.363       .  S
Zr124      O2110   2.364       .  S
Zr124       O802   2.353       .  S
Zr125       O749   2.528   1_545  S
Zr125      O1439   2.534       .  S
Zr125       O129   2.378       .  S
Zr125      O2079   2.367   1_545  S
Zr125       O767   2.360   1_545  S
Zr125      O1460   2.368       .  S
Zr126       O773   2.403       .  S
Zr126       O776   2.412   1_556  S
Zr126       O790   2.331   1_556  S
Zr126       O800   2.338       .  S
Zr127       O772   2.423       .  S
Zr127       O777   2.415   1_556  S
Zr127       O789   2.337       .  S
Zr127       O802   2.327   1_556  S
Zr128      O1434   2.403       .  S
Zr128       O129   2.332   1_554  S
Zr128       O142   2.338       .  S
Zr128      O1450   2.341       .  S
Zr128      O1460   2.330   1_554  S
O129       Zr787   2.341   1_546  S
O130      Zr2104   2.365   1_455  S
O130       Zr786   2.332       .  S
O130      Zr1448   2.336   1_455  S
C131        C245   1.489       .  S
C132        C385   1.498       .  S
C133        C194   1.515       .  S
C134        C205   1.515       .  S
C135        C354   1.503   1_545  S
C136        C374   1.503       .  S
C137        C325   1.477       .  S
C138        C305   1.480       .  S
H139        O140   0.968       .  S
O140      Zr1445   2.370   1_455  S
O140       Zr786   2.330   1_556  S
O140      Zr1448   2.332   1_456  S
H141        O142   0.967       .  S
O142       Zr784   2.370   1_545  S
O142       Zr787   2.329   1_545  S
N143        H175   1.037       .  S
N143        C148   1.349       .  A
N143        C147   1.352       .  A
N144        C151   1.351       .  A
N144        C152   1.348       .  A
N145        H176   1.038       .  S
N145        C150   1.351       .  A
N145        C149   1.347       .  A
N146        C153   1.349       .  A
N146        C154   1.352       .  A
C147        C155   1.385       .  A
C147        C163   1.409       .  A
C148        C164   1.413       .  A
C148        C156   1.389       .  A
C149        C157   1.387       .  A
C149        C166   1.407       .  A
C150        C165   1.407       .  A
C150        C158   1.385       .  A
C151        C163   1.409       .  A
C151        C159   1.386       .  A
C152        C166   1.409       .  A
C152        C160   1.387       .  A
C153        C161   1.389       .  A
C153        C164   1.412       .  A
C154        C162   1.384       .  A
C154        C165   1.408       .  A
C155        C156   1.375       .  A
C155        H167   1.083       .  S
C156        H168   1.082       .  S
C157        C158   1.376       .  A
C157        H169   1.082       .  S
C158        H170   1.083       .  S
C159        C160   1.371       .  A
C159        H171   1.082       .  S
C160        H172   1.082       .  S
C161        C162   1.371       .  A
C161        H173   1.082       .  S
C162        H174   1.082       .  S
C163        C314   1.480       .  S
C164        C334   1.477       .  S
C165        C265   1.481       .  S
C166        C285   1.470       .  S
C177        C234   1.571       .  S
C177        C254   1.579       .  S
C177        C594   1.568       .  S
C177       C1934   1.576   1_455  S
C178        C654   1.574   1_565  S
C178        C845   1.578       .  S
C178        C874   1.582       .  S
C178       C1285   1.579       .  S
C179        C394   1.573       .  S
C179        C414   1.582       .  S
C179        C434   1.574       .  S
C179       C1765   1.572       .  S
C180        C485   1.583       .  S
C180       C1005   1.577       .  S
C180       C1025   1.577       .  S
C180       C1125   1.581       .  S
C181        C186   1.406       .  A
C181        C842   1.404   1_545  A
C181        H191   1.083       .  S
C182        C187   1.522       .  S
C182        C183   1.415       .  A
C182        C841   1.407       .  A
C183        C184   1.411       .  A
C183        F188   1.357       .  S
C184        C185   1.416       .  A
C184        H189   1.083       .  S
C185        C846   1.428       .  A
C185        C838   1.592       .  S
C186        C845   1.423   1_545  A
C186        F190   1.355       .  S
C187        C192   1.422       .  A
C187        C196   1.403       .  A
C192        C193   1.422       .  A
C192        F857   1.356       .  S
C193        C194   1.409       .  A
C193        H858   1.083       .  S
C194        C195   1.420       .  A
C195        C196   1.401       .  A
C195        F199   1.358       .  S
C196        H200   1.082       .  S
F197        C852   1.357       .  S
H198        C853   1.083       .  S
C201        C206   1.418       .  A
C201        C862   1.413   1_545  A
C201        H211   1.083       .  S
C202        C207   1.517       .  S
C202        C203   1.404       .  A
C202        C861   1.420       .  A
C203        C204   1.398       .  A
C203        F208   1.357       .  S
C204        C205   1.413       .  A
C204        H209   1.081       .  S
C205        C866   1.411       .  A
C206        C865   1.412   1_545  A
C206        F210   1.357       .  S
C207        C216   1.411       .  A
C207        C872   1.407       .  A
C212        C213   1.406       .  A
C212        C867   1.406       .  A
C212        F217   1.357       .  S
C213        C874   1.418       .  A
C213        H218   1.078       .  S
C214        C215   1.420       .  A
C214        C873   1.422       .  A
C214        C838   1.588       .  S
C215        C216   1.410       .  A
C215        F219   1.357       .  S
C216        H220   1.083       .  S
C221        C222   1.416   1_655  A
C221        C226   1.412       .  A
C221        H231   1.083       .  S
C222        C227   1.502       .  S
C222       C1543   1.405       .  A
C223        C224   1.404       .  A
C223       C1542   1.408       .  A
C223        F228   1.357       .  S
C224        C225   1.409       .  A
C224        H229   1.083       .  S
C225       C1546   1.404       .  A
C226       C1545   1.405   1_655  A
C226        F230   1.357       .  S
C227        C232   1.400       .  A
C227       C1556   1.413       .  A
C232        C233   1.396       .  A
C232        F237   1.358       .  S
C233        C234   1.421       .  A
C233        H238   1.083       .  S
C234       C1555   1.416       .  A
C235        C236   1.414       .  A
C235       C1554   1.417       .  A
C235        F239   1.353       .  S
C236       C1547   1.413       .  A
C236        H240   1.083       .  S
C241        C242   1.408       .  A
C241        C246   1.411       .  A
C241        H251   1.083       .  S
C242        C247   1.509       .  S
C242       C1563   1.414       .  A
C243        C244   1.402       .  A
C243       C1562   1.408   1_455  A
C243        F248   1.357       .  S
C244       C1565   1.405   1_455  A
C244        H249   1.084       .  S
C245        C246   1.408       .  A
C245       C1564   1.407       .  A
C246        F250   1.357       .  S
C247        C252   1.414       .  A
C247       C1576   1.394       .  A
C252        C253   1.421       .  A
C252        F257   1.357       .  S
C253       C1574   1.419       .  A
C253        H258   1.083       .  S
C254        C255   1.432       .  A
C254       C1573   1.419   1_455  A
C255        C256   1.399       .  A
C255        F259   1.356       .  S
C256       C1567   1.398   1_455  A
C256        H260   1.084       .  S
C261        C262   1.407       .  A
C261        C266   1.398       .  A
C261        H271   1.083       .  S
C262        C267   1.479       .  S
C262        C263   1.404       .  A
C263        C264   1.395       .  A
C263        F268   1.357   1_554  S
C264        C265   1.403       .  A
C264        H269   1.083       .  S
C265        C266   1.403       .  A
C266        F270   1.357       .  S
C267        C272   1.403       .  A
C267        C276   1.405       .  A
C272        C273   1.392       .  A
C272        F277   1.357       .  S
C273        C274   1.405       .  A
C273        H278   1.082       .  S
C274        C275   1.412       .  A
C275        C276   1.399       .  A
C275        F279   1.358   1_554  S
C276        H280   1.083       .  S
C281        C282   1.401       .  A
C281        C286   1.395       .  A
C281        H291   1.083   1_554  S
C282        C287   1.463       .  S
C282        C283   1.404       .  A
C283        C284   1.390       .  A
C283        F288   1.357       .  S
C284        C285   1.397       .  A
C284        H289   1.083       .  S
C285        C286   1.406       .  A
C286        F290   1.358       .  S
C287        C292   1.401       .  A
C287        C296   1.397       .  A
C292        C293   1.393       .  A
C292        F297   1.358       .  S
C293        C294   1.407       .  A
C293        H298   1.083       .  S
C294        C295   1.414       .  A
C295        C296   1.393       .  A
C295        F299   1.358       .  S
C296        H300   1.084       .  S
C301        C302   1.402       .  A
C301        C306   1.394       .  A
C301        H311   1.083       .  S
C302        C307   1.477       .  S
C302        C303   1.405       .  A
C303        C304   1.395       .  A
C303        F308   1.358       .  S
C304        C305   1.408       .  A
C304        H309   1.083       .  S
C305        C306   1.410       .  A
C306        F310   1.358       .  S
C307        C312   1.409       .  A
C307        C316   1.402       .  A
C312        C313   1.398       .  A
C312        F317   1.358       .  S
C313        C314   1.401       .  A
C313        H318   1.083       .  S
C314        C315   1.404       .  A
C315        C316   1.394       .  A
C315        F319   1.357       .  S
C316        H320   1.083       .  S
C321        C322   1.398       .  A
C321        C326   1.392       .  A
C321        H331   1.084       .  S
C322        C327   1.467       .  S
C322        C323   1.403       .  A
C323        C324   1.395       .  A
C323        F328   1.358       .  S
C324        C325   1.409       .  A
C324        H329   1.083       .  S
C325        C326   1.410       .  A
C326        F330   1.357       .  S
C327        C332   1.402       .  A
C327        C336   1.404       .  A
C332        C333   1.389       .  A
C332        F337   1.358       .  S
C333        C334   1.402       .  A
C333        H338   1.084       .  S
C334        C335   1.405       .  A
C335        C336   1.396       .  A
C335        F339   1.358       .  S
C336        H340   1.083       .  S
C341        C346   1.406       .  A
C341       C1002   1.408       .  A
C341        H351   1.082       .  S
C342        C347   1.516       .  S
C342        C343   1.409   1_565  A
C342       C1001   1.407       .  A
C343        C344   1.412       .  A
C343        F348   1.357       .  S
C344        C345   1.418   1_545  A
C344        H349   1.081       .  S
C345       C1006   1.425       .  A
C345        C840   1.584   1_565  S
C346       C1005   1.420       .  A
C346        F350   1.357       .  S
C347        C356   1.416   1_565  A
C347       C1012   1.409       .  A
C352        C353   1.400       .  A
C352       C1007   1.408       .  A
C352        F357   1.357       .  S
C353       C1014   1.408       .  A
C353        H358   1.084       .  S
C354        C355   1.409   1_565  A
C354       C1013   1.410       .  A
C355        C356   1.418       .  A
C355        F359   1.357       .  S
C356        H360   1.083       .  S
C361        C362   1.405       .  A
C361        C366   1.408       .  A
C361        H371   1.083       .  S
C362        C367   1.509       .  S
C362       C1023   1.408   1_545  A
C363        C364   1.410       .  A
C363       C1022   1.411       .  A
C363        F368   1.357       .  S
C364       C1025   1.416       .  A
C364        H369   1.082       .  S
C365        C366   1.426       .  A
C365       C1024   1.417   1_545  A
C365        C840   1.588       .  S
C366        F370   1.357       .  S
C367        C372   1.406       .  A
C367       C1036   1.415   1_545  A
C372        C373   1.403       .  A
C372        F377   1.357       .  S
C373        C374   1.412       .  A
C373        H378   1.084       .  S
C374       C1035   1.408   1_545  A
C375        C376   1.415       .  A
C375       C1034   1.408       .  A
C375        F379   1.357       .  S
C376       C1027   1.415       .  A
C376        H380   1.083       .  S
C381        C386   1.412       .  A
C381       C1702   1.416       .  A
C381        H391   1.082       .  S
C382        C387   1.513       .  S
C382        C383   1.421       .  A
C382       C1701   1.401   1_455  A
C383        C384   1.421       .  A
C383        F388   1.358       .  S
C384       C1705   1.411       .  A
C384        H389   1.083       .  S
C385        C386   1.406       .  A
C385       C1704   1.410       .  A
C386        F390   1.357       .  S
C387        C392   1.402       .  A
C387       C1716   1.416       .  A
C392        C393   1.400       .  A
C392        F397   1.357       .  S
C393       C1714   1.423       .  A
C393        H398   1.083       .  S
C394        C395   1.416       .  A
C394       C1713   1.421       .  A
C395        C396   1.417       .  A
C395        F399   1.354       .  S
C396       C1707   1.416       .  A
C396        H400   1.082       .  S
C401        C406   1.402       .  A
C401       C1722   1.400   1_455  A
C401        H411   1.083       .  S
C402        C407   1.512       .  S
C402        C403   1.411       .  A
C402       C1721   1.412       .  A
C403        C404   1.412       .  A
C403        F408   1.357       .  S
C404        C405   1.409       .  A
C404        H409   1.083       .  S
C405       C1726   1.406       .  A
C406       C1725   1.418   1_455  A
C406        F410   1.359       .  S
C407        C416   1.414       .  A
C407       C1732   1.400       .  A
C412        C413   1.404       .  A
C412       C1727   1.398   1_455  A
C412        F417   1.358       .  S
C413       C1734   1.427   1_455  A
C413        H418   1.081       .  S
C414        C415   1.420       .  A
C414       C1733   1.426       .  A
C415        C416   1.420       .  A
C415        F419   1.357       .  S
C416        H420   1.082       .  S
C421        C422   1.416       .  A
C421        C426   1.414       .  A
C421        H431   1.082       .  S
C422        C427   1.502       .  S
C422        C423   1.402       .  A
C423        C424   1.393       .  A
C423        F428   1.358       .  S
C424        C425   1.418       .  A
C424        H429   1.083       .  S
C425        C426   1.407       .  A
C426        F430   1.356       .  S
C427        C432   1.412       .  A
C427        C436   1.397       .  A
C432        C433   1.407       .  A
C432        F437   1.357       .  S
C433        C434   1.413       .  A
C433        H438   1.082       .  S
C434        C435   1.432       .  A
C435        C436   1.399       .  A
C435        F439   1.356       .  S
C436        H440   1.083       .  S
C441        C442   1.404       .  A
C441        C446   1.402       .  A
C441        H451   1.082       .  S
C442        C447   1.519       .  S
C442        C443   1.419       .  A
C443        C444   1.412       .  A
C443        F448   1.356       .  S
C444        C445   1.411       .  A
C444        H449   1.079       .  S
C445        C446   1.423       .  A
C445       C1499   1.573       .  S
C446        F450   1.358       .  S
C447        C452   1.421       .  A
C447        C456   1.408       .  A
C452        C453   1.414       .  A
C452        F457   1.357       .  S
C453        C454   1.404       .  A
C453        H458   1.083       .  S
C454        C455   1.412       .  A
C455        C456   1.404       .  A
C455        F459   1.358       .  S
C456        H460   1.082       .  S
C461        C462   1.408       .  A
C461        C466   1.405       .  A
C461        H471   1.082       .  S
C462        C467   1.516       .  S
C462        C463   1.411       .  A
C463        C464   1.413       .  A
C463        F468   1.357       .  S
C464        C465   1.421       .  A
C464        H469   1.080       .  S
C465        C466   1.418       .  A
C465        C840   1.581       .  S
C466        F470   1.357       .  S
C467        C472   1.409       .  A
C467        C476   1.417       .  A
C472        C473   1.400       .  A
C472        F477   1.357       .  S
C473        C474   1.411       .  A
C473        H478   1.084       .  S
C474        C475   1.409       .  A
C475        C476   1.420       .  A
C475        F479   1.357       .  S
C476        H480   1.083       .  S
C481        C482   1.407       .  A
C481        C486   1.412       .  A
C481        H491   1.083       .  S
C482        C487   1.511       .  S
C482        C483   1.408       .  A
C483        C484   1.408       .  A
C483        F488   1.357       .  S
C484        C485   1.419       .  A
C484        H489   1.079       .  S
C485        C486   1.422       .  A
C486        F490   1.357       .  S
C487        C492   1.410       .  A
C487        C496   1.414       .  A
C492        C493   1.405       .  A
C492        F497   1.357       .  S
C493        C494   1.410       .  A
C493        H498   1.084       .  S
C494        C495   1.407       .  A
C495        C496   1.415       .  A
C495        F499   1.357       .  S
C496        H500   1.083       .  S
C501        C502   1.400       .  A
C501        C506   1.400       .  A
C501        H511   1.083       .  S
C502        C507   1.475       .  S
C502        C503   1.403       .  A
C503        C504   1.397       .  A
C503        F508   1.357       .  S
C504        C505   1.406       .  A
C504        H509   1.083       .  S
C505        C506   1.414       .  A
C506        F510   1.358       .  S
C507        C512   1.408       .  A
C507        C516   1.400       .  A
C512        C513   1.405       .  A
C512        F517   1.358       .  S
C513        C514   1.404       .  A
C513        H518   1.083       .  S
C514        C515   1.403       .  A
C515        C516   1.394       .  A
C515        F519   1.357       .  S
C516        H520   1.083       .  S
C521        C522   1.401       .  A
C521        C526   1.395       .  A
C521        H531   1.083       .  S
C522        C527   1.466       .  S
C522        C523   1.401       .  A
C523        C524   1.391       .  A
C523        F528   1.358       .  S
C524        C525   1.407       .  A
C524        H529   1.083       .  S
C525        C526   1.409       .  A
C526        F530   1.357       .  S
C527        C532   1.404       .  A
C527        C536   1.400       .  A
C532        C533   1.396       .  A
C532        F537   1.358       .  S
C533        C534   1.404       .  A
C533        H538   1.083       .  S
C534        C535   1.405       .  A
C535        C536   1.390       .  A
C535        F539   1.358       .  S
C536        H540   1.084       .  S
C541        C542   1.405       .  A
C541        C546   1.402       .  A
C541        H551   1.083       .  S
C542        C547   1.480       .  S
C542        C543   1.401       .  A
C543        C544   1.395       .  A
C543        F548   1.357       .  S
C544        C545   1.409       .  A
C544        H549   1.083       .  S
C545        C546   1.413       .  A
C546        F550   1.358       .  S
C547        C552   1.406       .  A
C547        C556   1.405       .  A
C552        C553   1.396       .  A
C552        F557   1.357       .  S
C553        C554   1.403       .  A
C553        H558   1.083       .  S
C554        C555   1.406       .  A
C555        C556   1.400       .  A
C555        F559   1.357       .  S
C556        H560   1.083       .  S
C561        C562   1.402       .  A
C561        C566   1.393       .  A
C561        H571   1.083       .  S
C562        C567   1.472       .  S
C562        C563   1.408       .  A
C563        C564   1.395       .  A
C563        F568   1.358       .  S
C564        C565   1.398       .  A
C564        H569   1.083       .  S
C565        C566   1.403       .  A
C566        F570   1.358       .  S
C567        C572   1.403       .  A
C567        C576   1.401       .  A
C572        C573   1.395       .  A
C572        F577   1.358       .  S
C573        C574   1.408       .  A
C573        H578   1.083       .  S
C574        C575   1.410       .  A
C575        C576   1.393       .  A
C575        F579   1.358       .  S
C576        H580   1.084       .  S
C581        C582   1.414       .  A
C581        C586   1.414       .  A
C581        H591   1.083       .  S
C582        C587   1.500       .  S
C582        C583   1.404       .  A
C583        C584   1.397       .  A
C583        F588   1.357       .  S
C584        C585   1.408       .  A
C584        H589   1.083       .  S
C585        C586   1.408       .  A
C586        F590   1.357       .  S
C587        C592   1.414       .  A
C587        C596   1.397       .  A
C592        C593   1.411       .  A
C592        F597   1.357       .  S
C593        C594   1.412       .  A
C593        H598   1.080       .  S
C594        C595   1.425       .  A
C595        C596   1.399       .  A
C595        F599   1.357       .  S
C596        H600   1.083       .  S
C601        C602   1.414       .  A
C601        C606   1.414       .  A
C601        H611   1.083       .  S
C602        C607   1.497       .  S
C602        C603   1.399       .  A
C603        C604   1.395       .  A
C603        F608   1.358       .  S
C604        C605   1.419       .  A
C604        H609   1.083       .  S
C605        C606   1.408       .  A
C606        F610   1.356       .  S
C607        C612   1.396       .  A
C607        C616   1.409       .  A
C612        C613   1.397       .  A
C612        F617   1.358       .  S
C613        C614   1.427       .  A
C613        H618   1.079       .  S
C614        C615   1.418       .  A
C614       C1497   1.579       .  S
C615        C616   1.412       .  A
C615        F619   1.355       .  S
C616        H620   1.083       .  S
C621        C622   1.410       .  A
C621        C626   1.414       .  A
C621        H631   1.083       .  S
C622        C627   1.518       .  S
C622        C623   1.410       .  A
C623        C624   1.406       .  A
C623        F628   1.357       .  S
C624        C625   1.418       .  A
C624        H629   1.079       .  S
C625        C626   1.422       .  A
C625        C838   1.588       .  S
C626        F630   1.357       .  S
C627        C632   1.418       .  A
C627        C636   1.409       .  A
C632        C633   1.416       .  A
C632        F637   1.357       .  S
C633        C634   1.407       .  A
C633        H638   1.083       .  S
C634        C635   1.408       .  A
C635        C636   1.404       .  A
C635        F639   1.358       .  S
C636        H640   1.082       .  S
C641        C642   1.406       .  A
C641        C646   1.400       .  A
C641        H651   1.083       .  S
C642        C647   1.503       .  S
C642        C643   1.413       .  A
C643        C644   1.412       .  A
C643        F648   1.357       .  S
C644        C645   1.405       .  A
C644        H649   1.083       .  S
C645        C646   1.410       .  A
C646        F650   1.358       .  S
C647        C652   1.405       .  A
C647        C656   1.408       .  A
C652        C653   1.399       .  A
C652        F657   1.357       .  S
C653        C654   1.417       .  A
C653        H658   1.078       .  S
C654        C655   1.421       .  A
C655        C656   1.412       .  A
C655        F659   1.357       .  S
C656        H660   1.083       .  S
O661       Zr697   2.535       .  S
O661        C672   1.311       .  A
O662       Zr696   2.552       .  S
O662        C673   1.314       .  A
O663       Zr669   2.422       .  S
O663        C674   1.288       .  A
O664       Zr669   2.426       .  S
O664        C675   1.288       .  A
O665       Zr699   2.432       .  S
O665        C675   1.290       .  A
O666       Zr698   2.417       .  S
O666        C674   1.287       .  A
O667       Zr669   2.393       .  S
O667        C673   1.284       .  A
O668       Zr669   2.402       .  S
O668        C672   1.285       .  A
Zr669       O670   2.330       .  S
Zr669       O671   2.331       .  S
Zr669       O679   2.333       .  S
Zr669       O677   2.341       .  S
O670       Zr696   2.366       .  S
O670       Zr699   2.328       .  S
O671       Zr697   2.370       .  S
O671       Zr698   2.340       .  S
C672       C1305   1.502       .  S
C673       C1134   1.510       .  S
C674       C1165   1.476       .  S
C675       C1185   1.484       .  S
H676        O677   0.980       .  S
O677       Zr696   2.371       .  S
O677       Zr698   2.342       .  S
H678        O679   0.965       .  S
O679       Zr697   2.354       .  S
O679       Zr699   2.336       .  S
O680       Zr696   2.560       .  S
O680        C703   1.316       .  A
O681       Zr697   2.524       .  S
O681        C704   1.309       .  A
O682       Zr698   2.417       .  S
O682        C705   1.289       .  A
O683       Zr699   2.405       .  S
O683        C706   1.287       .  A
O684       Zr699   2.400       .  S
O684        C707   1.286       .  A
O685       Zr698   2.417       .  S
O685        C708   1.289       .  A
O686       Zr700   2.458       .  S
O686        C709   1.294       .  A
O687       Zr700   2.434       .  S
O687        C710   1.290       .  A
O688       Zr698   2.430       .  S
O688        C709   1.289       .  A
O689       Zr699   2.426       .  S
O689        C710   1.290       .  A
O690       Zr696   2.507       .  S
O690        C705   1.306       .  A
O691       Zr697   2.519       .  S
O691        C708   1.309       .  A
O692       Zr697   2.537       .  S
O692        C707   1.311       .  A
O693       Zr696   2.518       .  S
O693        C706   1.308       .  A
O694       Zr700   2.391       .  S
O694        C703   1.284       .  A
O695       Zr700   2.393       .  S
O695        C704   1.284       .  A
Zr696       O702   2.380       .  S
Zr696       O714   2.369       .  S
Zr697       O701   2.364       .  S
Zr697       O712   2.366       .  S
Zr698       O702   2.338       .  S
Zr698       O712   2.337       .  S
Zr699       O701   2.329       .  S
Zr699       O714   2.338       .  S
Zr700       O701   2.336       .  S
Zr700       O702   2.335       .  S
Zr700       O714   2.348       .  S
Zr700       O712   2.330       .  S
C703       C1154   1.509       .  S
C704       C1294   1.493       .  S
C705       C1085   1.493       .  S
C706       C1114   1.512       .  S
C707       C1245   1.516       .  S
C708       C1265   1.500       .  S
C709       C1234   1.496       .  S
C710       C1205   1.485       .  S
H711        O712   0.963       .  S
H713        O714   0.967       .  S
N715        H747   1.037       .  S
N715       C2040   1.348       .  A
N715        C719   1.349   1_655  A
N716        C724   1.350       .  A
N717        H748   1.039       .  S
N717       C2042   1.349   1_455  A
N717        C721   1.349       .  A
N718        C726   1.350       .  A
C719        C727   1.387       .  A
C719        C735   1.409       .  A
C720       N2035   1.350       .  A
C720        C736   1.413       .  A
C720        C728   1.386       .  A
C721        C729   1.387       .  A
C721        C738   1.408       .  A
C722       N2037   1.348       .  A
C722        C737   1.406       .  A
C722        C730   1.386       .  A
C723        C735   1.410       .  A
C723        C731   1.387       .  A
C724        C738   1.408       .  A
C724        C732   1.385       .  A
C725        C733   1.387       .  A
C725        C736   1.417       .  A
C726        C734   1.386       .  A
C726        C737   1.409       .  A
C727       C2048   1.377   1_455  A
C727        H739   1.083       .  S
C728       C2047   1.377       .  A
C728        H740   1.082       .  S
C729       C2050   1.376   1_455  A
C729        H741   1.083       .  S
C730       C2049   1.376       .  A
C730        H742   1.082       .  S
C731        H743   1.082       .  S
C732        H744   1.082       .  S
C733        H745   1.082       .  S
C734        H746   1.082       .  S
C735       C1214   1.476       .  S
C736       C1225   1.488       .  S
C737       C1174   1.478       .  S
C738       C1194   1.479       .  S
O749        C760   1.310       .  A
O750       Zr784   2.539       .  S
O750        C761   1.312       .  A
O751      Zr2077   2.422   1_456  S
O751        C762   1.289       .  A
O752       Zr757   2.425   1_556  S
O752        C763   1.289       .  A
O753       Zr787   2.408   1_556  S
O753        C763   1.285       .  A
O754       Zr786   2.414   1_566  S
O754        C762   1.286       .  A
O755       Zr757   2.392       .  S
O755        C761   1.283       .  A
O756       Zr757   2.398   1_556  S
O756        C760   1.284       .  A
Zr757      O2071   2.429       .  S
Zr757       O758   2.339       .  S
Zr757      O2079   2.336   1_554  S
Zr757       O767   2.327   1_554  S
Zr757      O2085   2.333       .  S
O758       Zr784   2.369       .  S
O758       Zr787   2.338       .  S
O759      Zr2077   2.340   1_456  S
O759      Zr1445   2.363   1_465  S
O759       Zr786   2.334   1_566  S
C760       C1065   1.493       .  S
C761        C885   1.510       .  S
C762        C934   1.472       .  S
C763        C954   1.475       .  S
H764        O765   0.967       .  S
O765      Zr2077   2.332   1_455  S
O765      Zr2104   2.370   1_465  S
O765       Zr786   2.334   1_565  S
H766        O767   0.970       .  S
O767       Zr787   2.338   1_556  S
O768        C791   1.306       .  A
O769       Zr785   2.531       .  S
O769        C792   1.311       .  A
O770       Zr786   2.405   1_565  S
O770        C793   1.286       .  A
O771       Zr787   2.427       .  S
O771        C794   1.290       .  A
O772        C795   1.290       .  A
O773        C796   1.286       .  A
O774      Zr2108   2.425   1_454  S
O774        C797   1.288       .  A
O775       Zr788   2.423       .  S
O775        C798   1.288       .  A
O776        C797   1.286       .  A
O777        C798   1.287       .  A
O778      Zr2104   2.513   1_455  S
O778        C793   1.307   1_545  A
O779      Zr2105   2.521   1_455  S
O779        C796   1.308       .  A
O780       Zr785   2.513       .  S
O780        C795   1.306       .  A
O781       Zr784   2.523       .  S
O781        C794   1.309       .  A
O782       Zr788   2.398       .  S
O782        C791   1.284       .  A
O783       Zr788   2.402   1_556  S
O783        C792   1.286       .  A
Zr784      O2098   2.535       .  S
Zr784      O2085   2.358       .  S
Zr784      O1450   2.362   1_565  S
Zr785      O2099   2.502       .  S
Zr785      O1419   2.370       .  S
Zr785       O789   2.369       .  S
Zr785      O2120   2.372       .  S
Zr788      O2094   2.434       .  S
Zr788       O789   2.342   1_554  S
Zr788      O2110   2.328       .  S
Zr788       O802   2.328       .  S
Zr788      O2120   2.332   1_554  S
O790      Zr1444   2.355   1_455  S
O790      Zr2108   2.327   1_454  S
C791        C905   1.485       .  S
C792       C1045   1.514       .  S
C793        C854   1.501       .  S
C794        C865   1.504       .  S
C795       C1014   1.499       .  S
C796       C1034   1.494       .  S
C797        C985   1.478       .  S
C798        C965   1.472       .  S
H799        O800   0.971       .  S
O800      Zr2105   2.379   1_455  S
O800      Zr2108   2.344   1_455  S
H801        O802   0.967       .  S
N803        H835   1.039       .  S
N803        C808   1.349       .  A
N803        C807   1.348       .  A
N804        C811   1.346       .  A
N804        C812   1.346       .  A
N805        H836   1.039       .  S
N805        C810   1.345       .  A
N805        C809   1.346       .  A
N806        C813   1.345       .  A
N806        C814   1.346       .  A
C807        C815   1.385       .  A
C807        C823   1.405       .  A
C808        C824   1.407       .  A
C808        C816   1.387       .  A
C809        C817   1.388       .  A
C809        C826   1.403       .  A
C810        C825   1.401       .  A
C810        C818   1.386       .  A
C811        C823   1.404       .  A
C811        C819   1.387       .  A
C812        C826   1.403       .  A
C812        C820   1.386       .  A
C813        C821   1.387       .  A
C813        C824   1.404       .  A
C814        C822   1.386       .  A
C814        C825   1.403       .  A
C815        C816   1.375       .  A
C815        H827   1.082       .  S
C816        H828   1.082       .  S
C817        C818   1.374       .  A
C817        H829   1.083       .  S
C818        H830   1.082       .  S
C819        C820   1.372       .  A
C819        H831   1.082       .  S
C820        H832   1.082       .  S
C821        C822   1.373       .  A
C821        H833   1.082       .  S
C822        H834   1.082       .  S
C823        C974   1.469       .  S
C824        C994   1.467       .  S
C825        C925   1.463       .  S
C826        C945   1.465       .  S
C837        C894   1.583       .  S
C837        C914   1.572   1_455  S
C837       C1254   1.580       .  S
C837       C2594   1.579   1_455  S
C838       C1314   1.582       .  S
C839       C1054   1.580       .  S
C839       C1074   1.565       .  S
C839       C1094   1.575       .  S
C839       C2425   1.584       .  S
C840       C1145   1.589   1_545  S
C841        C846   1.414       .  A
C841        H851   1.083       .  S
C842        C847   1.508       .  S
C842        C843   1.412       .  A
C843        C844   1.407       .  A
C843        F848   1.358       .  S
C844        C845   1.417       .  A
C844        H849   1.083       .  S
C846        F850   1.355       .  S
C847        C852   1.418   1_565  A
C847        C856   1.402       .  A
C852        C853   1.415       .  A
C853        C854   1.406   1_545  A
C854        C855   1.416       .  A
C855        C856   1.397       .  A
C855        F859   1.359       .  S
C856        H860   1.082       .  S
C861        C866   1.423       .  A
C861        H871   1.083       .  S
C862        C867   1.506       .  S
C862        C863   1.405       .  A
C863        C864   1.404       .  A
C863        F868   1.357       .  S
C864        C865   1.410       .  A
C864        H869   1.084       .  S
C866        F870   1.357       .  S
C867        C876   1.406   1_565  A
C872        C873   1.411       .  A
C872        F877   1.357       .  S
C873        H878   1.079       .  S
C874        C875   1.422   1_565  A
C875        C876   1.412       .  A
C875        F879   1.357       .  S
C876        H880   1.083       .  S
C881        C882   1.414   1_655  A
C881        C886   1.410       .  A
C881        H891   1.083       .  S
C882        C887   1.518       .  S
C882       C2203   1.413       .  A
C883       C2202   1.415       .  A
C883        C884   1.414       .  A
C883        F888   1.356       .  S
C884        C885   1.407       .  A
C884        H889   1.083       .  S
C885       C2206   1.423       .  A
C886       C2205   1.405   1_655  A
C886        F890   1.357       .  S
C887        C892   1.403   1_455  A
C887       C2216   1.415       .  A
C892        C893   1.401       .  A
C892        F897   1.358       .  S
C893        C894   1.423   1_655  A
C893        H898   1.081       .  S
C894       C2215   1.420       .  A
C895       C2214   1.421       .  A
C895        C896   1.414       .  A
C895        F899   1.354       .  S
C896       C2207   1.410       .  A
C896        H900   1.083       .  S
C901        C902   1.404       .  A
C901        C906   1.402       .  A
C901        H911   1.083       .  S
C902        C907   1.506       .  S
C902       C2223   1.419       .  A
C903       C2222   1.416   1_455  A
C903        C904   1.409       .  A
C903        F908   1.357       .  S
C904       C2225   1.403   1_455  A
C904        H909   1.083       .  S
C905       C2224   1.401       .  A
C905        C906   1.411       .  A
C906        F910   1.358       .  S
C907        C912   1.417       .  A
C907       C2236   1.397       .  A
C912        C913   1.417       .  A
C912        F917   1.357       .  S
C913       C2234   1.415       .  A
C913        H918   1.080       .  S
C914       C2233   1.414       .  A
C914        C915   1.424   1_655  A
C915        C916   1.398       .  A
C915        F919   1.356       .  S
C916       C2227   1.398   1_455  A
C916        H920   1.083       .  S
C921        C922   1.404       .  A
C921        C926   1.386       .  A
C921        H931   1.084       .  S
C922        C927   1.464   1_554  S
C922        C923   1.403   1_554  A
C923        C924   1.395       .  A
C923        F928   1.358       .  S
C924        C925   1.403   1_556  A
C924        H929   1.084       .  S
C925        C926   1.396       .  A
C926        F930   1.357       .  S
C927        C932   1.401   1_556  A
C927        C936   1.401       .  A
C932        C933   1.385       .  A
C932        F937   1.358       .  S
C933        C934   1.403   1_554  A
C933        H938   1.083       .  S
C934        C935   1.412       .  A
C935        C936   1.398       .  A
C935        F939   1.358       .  S
C936        H940   1.083       .  S
C941        C942   1.398   1_556  A
C941        C946   1.390   1_556  A
C941        H951   1.083       .  S
C942        C947   1.457       .  S
C942        C943   1.404       .  A
C943        C944   1.390       .  A
C943        F948   1.358       .  S
C944        C945   1.398       .  A
C944        H949   1.083       .  S
C945        C946   1.404       .  A
C946        F950   1.358   1_554  S
C947        C952   1.400   1_554  A
C947        C956   1.396       .  A
C952        C953   1.392       .  A
C952        F957   1.358       .  S
C953        C954   1.407       .  A
C953        H958   1.083       .  S
C954        C955   1.414   1_556  A
C955        C956   1.390       .  A
C955        F959   1.358       .  S
C956        H960   1.084       .  S
C961        C962   1.400       .  A
C961        C966   1.392       .  A
C961        H971   1.084       .  S
C962        C967   1.459       .  S
C962        C963   1.399       .  A
C963        C964   1.390       .  A
C963        F968   1.358       .  S
C964        C965   1.408       .  A
C964        H969   1.081       .  S
C965        C966   1.408       .  A
C966        F970   1.357       .  S
C967        C972   1.402       .  A
C967        C976   1.401       .  A
C972        C973   1.392       .  A
C972        F977   1.357       .  S
C973        C974   1.401       .  A
C973        H978   1.083       .  S
C974        C975   1.403       .  A
C975        C976   1.391       .  A
C975        F979   1.358       .  S
C976        H980   1.084       .  S
C981        C982   1.399       .  A
C981        C986   1.393       .  A
C981        H991   1.083       .  S
C982        C987   1.468       .  S
C982        C983   1.403       .  A
C983        C984   1.392       .  A
C983        F988   1.359       .  S
C984        C985   1.408       .  A
C984        H989   1.083       .  S
C985        C986   1.412       .  A
C986        F990   1.357       .  S
C987        C992   1.405       .  A
C987        C996   1.405       .  A
C992        C993   1.386       .  A
C992        F997   1.358       .  S
C993        C994   1.397       .  A
C993        H998   1.084       .  S
C994        C995   1.402       .  A
C995        C996   1.398       .  A
C995        F999   1.357       .  S
C996       H1000   1.083       .  S
C1001      C1006   1.410       .  A
C1001      H1011   1.083       .  S
C1002      C1007   1.510       .  S
C1002      C1003   1.409       .  A
C1003      C1004   1.409       .  A
C1003      F1008   1.357       .  S
C1004      C1005   1.417       .  A
C1004      H1009   1.082       .  S
C1006      F1010   1.356       .  S
C1007      C1016   1.416       .  A
C1012      C1013   1.405       .  A
C1012      F1017   1.357       .  S
C1013      H1018   1.084       .  S
C1014      C1015   1.409       .  A
C1015      C1016   1.416       .  A
C1015      F1019   1.357       .  S
C1016      H1020   1.083       .  S
C1021      C1022   1.407       .  A
C1021      C1026   1.403       .  A
C1021      H1031   1.082       .  S
C1022      C1027   1.509       .  S
C1023      C1024   1.413       .  A
C1023      F1028   1.357       .  S
C1024      H1029   1.082       .  S
C1025      C1026   1.420       .  A
C1026      F1030   1.357       .  S
C1027      C1032   1.409       .  A
C1032      C1033   1.400       .  A
C1032      F1037   1.357       .  S
C1033      C1034   1.408       .  A
C1033      H1038   1.084       .  S
C1035      C1036   1.417       .  A
C1035      F1039   1.357       .  S
C1036      H1040   1.083       .  S
C1041      C2362   1.400       .  A
C1041      C1046   1.400       .  A
C1041      H1051   1.083       .  S
C1042      C1047   1.503       .  S
C1042      C2361   1.398       .  A
C1042      C1043   1.414   1_655  A
C1043      C1044   1.418       .  A
C1043      F1048   1.356       .  S
C1044      C2365   1.408   1_455  A
C1044      H1049   1.083       .  S
C1045      C2364   1.407       .  A
C1045      C1046   1.424       .  A
C1046      F1050   1.358       .  S
C1047      C1052   1.398       .  A
C1047      C2376   1.410   1_655  A
C1052      C1053   1.401       .  A
C1052      F1057   1.358       .  S
C1053      C2374   1.428       .  A
C1053      H1058   1.081       .  S
C1054      C2373   1.425       .  A
C1054      C1055   1.419       .  A
C1055      C1056   1.414       .  A
C1055      F1059   1.356       .  S
C1056      C2367   1.412       .  A
C1056      H1060   1.083       .  S
C1061      C2382   1.418   1_455  A
C1061      C1066   1.416       .  A
C1061      H1071   1.082       .  S
C1062      C1067   1.499       .  S
C1062      C2381   1.412       .  A
C1062      C1063   1.404       .  A
C1063      C1064   1.404       .  A
C1063      F1068   1.358       .  S
C1064      C1065   1.411       .  A
C1064      H1069   1.084       .  S
C1065      C2386   1.407       .  A
C1066      C2385   1.407   1_455  A
C1066      F1070   1.357       .  S
C1067      C2392   1.399       .  A
C1067      C1076   1.412       .  A
C1072      C2387   1.405   1_455  A
C1072      C1073   1.402       .  A
C1072      F1077   1.358       .  S
C1073      C2394   1.423   1_455  A
C1073      H1078   1.083       .  S
C1074      C2393   1.420       .  A
C1074      C1075   1.416       .  A
C1075      C1076   1.414       .  A
C1075      F1079   1.355       .  S
C1076      H1080   1.083       .  S
C1081      C1082   1.402       .  A
C1081      C1086   1.401       .  A
C1081      H1091   1.083       .  S
C1082      C1087   1.502       .  S
C1082      C1083   1.416       .  A
C1083      C1084   1.413       .  A
C1083      F1088   1.357       .  S
C1084      C1085   1.406       .  A
C1084      H1089   1.083       .  S
C1085      C1086   1.411       .  A
C1086      F1090   1.358       .  S
C1087      C1092   1.415       .  A
C1087      C1096   1.395       .  A
C1092      C1093   1.417       .  A
C1092      F1097   1.357       .  S
C1093      C1094   1.413       .  A
C1093      H1098   1.080       .  S
C1094      C1095   1.429       .  A
C1095      C1096   1.396       .  A
C1095      F1099   1.356       .  S
C1096      H1100   1.083       .  S
C1101      C1102   1.398       .  A
C1101      C1106   1.401       .  A
C1101      H1111   1.083       .  S
C1102      C1107   1.508       .  S
C1102      C1103   1.414       .  A
C1103      C1104   1.411       .  A
C1103      F1108   1.356       .  S
C1104      C1105   1.413       .  A
C1104      H1109   1.082       .  S
C1105      C1106   1.432       .  A
C1105      C2159   1.574   1_455  S
C1106      F1110   1.357       .  S
C1107      C1112   1.403       .  A
C1107      C1116   1.417       .  A
C1112      C1113   1.396       .  A
C1112      F1117   1.357       .  S
C1113      C1114   1.416       .  A
C1113      H1118   1.083       .  S
C1114      C1115   1.410       .  A
C1115      C1116   1.417       .  A
C1115      F1119   1.357       .  S
C1116      H1120   1.083       .  S
C1121      C1122   1.410       .  A
C1121      C1126   1.411       .  A
C1121      H1131   1.082       .  S
C1122      C1127   1.517       .  S
C1122      C1123   1.409       .  A
C1123      C1124   1.408       .  A
C1123      F1128   1.357       .  S
C1124      C1125   1.417       .  A
C1124      H1129   1.080       .  S
C1125      C1126   1.421       .  A
C1126      F1130   1.358       .  S
C1127      C1132   1.409       .  A
C1127      C1136   1.417       .  A
C1132      C1133   1.405       .  A
C1132      F1137   1.358       .  S
C1133      C1134   1.415       .  A
C1133      H1138   1.084       .  S
C1134      C1135   1.407       .  A
C1135      C1136   1.417       .  A
C1135      F1139   1.356       .  S
C1136      H1140   1.082       .  S
C1141      C1142   1.408       .  A
C1141      C1146   1.415       .  A
C1141      H1151   1.083       .  S
C1142      C1147   1.514       .  S
C1142      C1143   1.408       .  A
C1143      C1144   1.411       .  A
C1143      F1148   1.357       .  S
C1144      C1145   1.420       .  A
C1144      H1149   1.079       .  S
C1145      C1146   1.423       .  A
C1146      F1150   1.357       .  S
C1147      C1152   1.406       .  A
C1147      C1156   1.416       .  A
C1152      C1153   1.406       .  A
C1152      F1157   1.358       .  S
C1153      C1154   1.415       .  A
C1153      H1158   1.084       .  S
C1154      C1155   1.410       .  A
C1155      C1156   1.421       .  A
C1155      F1159   1.356       .  S
C1156      H1160   1.083       .  S
C1161      C1162   1.397       .  A
C1161      C1166   1.390       .  A
C1161      H1171   1.084       .  S
C1162      C1167   1.465       .  S
C1162      C1163   1.403       .  A
C1163      C1164   1.396       .  A
C1163      F1168   1.358       .  S
C1164      C1165   1.407       .  A
C1164      H1169   1.083       .  S
C1165      C1166   1.411       .  A
C1166      F1170   1.358       .  S
C1167      C1172   1.404       .  A
C1167      C1176   1.400       .  A
C1172      C1173   1.394       .  A
C1172      F1177   1.358       .  S
C1173      C1174   1.401       .  A
C1173      H1178   1.083       .  S
C1174      C1175   1.407       .  A
C1175      C1176   1.393       .  A
C1175      F1179   1.358       .  S
C1176      H1180   1.084       .  S
C1181      C1182   1.399       .  A
C1181      C1186   1.393       .  A
C1181      H1191   1.083       .  S
C1182      C1187   1.475       .  S
C1182      C1183   1.406       .  A
C1183      C1184   1.398       .  A
C1183      F1188   1.358       .  S
C1184      C1185   1.408       .  A
C1184      H1189   1.083       .  S
C1185      C1186   1.413       .  A
C1186      F1190   1.357       .  S
C1187      C1192   1.408       .  A
C1187      C1196   1.402       .  A
C1192      C1193   1.397       .  A
C1192      F1197   1.358       .  S
C1193      C1194   1.401       .  A
C1193      H1198   1.083       .  S
C1194      C1195   1.405       .  A
C1195      C1196   1.393       .  A
C1195      F1199   1.358       .  S
C1196      H1200   1.083       .  S
C1201      C1202   1.402       .  A
C1201      C1206   1.397       .  A
C1201      H1211   1.084       .  S
C1202      C1207   1.473       .  S
C1202      C1203   1.402       .  A
C1203      C1204   1.394       .  A
C1203      F1208   1.357       .  S
C1204      C1205   1.409       .  A
C1204      H1209   1.083       .  S
C1205      C1206   1.412       .  A
C1206      F1210   1.358       .  S
C1207      C1212   1.404       .  A
C1207      C1216   1.405       .  A
C1212      C1213   1.394       .  A
C1212      F1217   1.357       .  S
C1213      C1214   1.401       .  A
C1213      H1218   1.084       .  S
C1214      C1215   1.402       .  A
C1215      C1216   1.397       .  A
C1215      F1219   1.357       .  S
C1216      H1220   1.083       .  S
C1221      C1222   1.401       .  A
C1221      C1226   1.395       .  A
C1221      H1231   1.083       .  S
C1222      C1227   1.484       .  S
C1222      C1223   1.411       .  A
C1223      C1224   1.404       .  A
C1223      F1228   1.358       .  S
C1224      C1225   1.404       .  A
C1224      H1229   1.083       .  S
C1225      C1226   1.406       .  A
C1226      F1230   1.358       .  S
C1227      C1232   1.405       .  A
C1227      C1236   1.403       .  A
C1232      C1233   1.401       .  A
C1232      F1237   1.358       .  S
C1233      C1234   1.412       .  A
C1233      H1238   1.083       .  S
C1234      C1235   1.412       .  A
C1235      C1236   1.401       .  A
C1235      F1239   1.357       .  S
C1236      H1240   1.083       .  S
C1241      C1242   1.416       .  A
C1241      C1246   1.421       .  A
C1241      H1251   1.083       .  S
C1242      C1247   1.510       .  S
C1242      C1243   1.402       .  A
C1243      C1244   1.398       .  A
C1243      F1248   1.358       .  S
C1244      C1245   1.417       .  A
C1244      H1249   1.083       .  S
C1245      C1246   1.412       .  A
C1246      F1250   1.356       .  S
C1247      C1252   1.411       .  A
C1247      C1256   1.400       .  A
C1252      C1253   1.412       .  A
C1252      F1257   1.357       .  S
C1253      C1254   1.413       .  A
C1253      H1258   1.082       .  S
C1254      C1255   1.433       .  A
C1255      C1256   1.408       .  A
C1255      F1259   1.357       .  S
C1256      H1260   1.083       .  S
C1261      C1262   1.412       .  A
C1261      C1266   1.412       .  A
C1261      H1271   1.083       .  S
C1262      C1267   1.503       .  S
C1262      C1263   1.406       .  A
C1263      C1264   1.404       .  A
C1263      F1268   1.358       .  S
C1264      C1265   1.412       .  A
C1264      H1269   1.083       .  S
C1265      C1266   1.407       .  A
C1266      F1270   1.356       .  S
C1267      C1272   1.402       .  A
C1267      C1276   1.409       .  A
C1272      C1273   1.400       .  A
C1272      F1277   1.357       .  S
C1273      C1274   1.420       .  A
C1273      H1278   1.083       .  S
C1274      C1275   1.421       .  A
C1274      C2157   1.575       .  S
C1275      C1276   1.411       .  A
C1275      F1279   1.354       .  S
C1276      H1280   1.083       .  S
C1281      C1282   1.407       .  A
C1281      C1286   1.411       .  A
C1281      H1291   1.083       .  S
C1282      C1287   1.499       .  S
C1282      C1283   1.404       .  A
C1283      C1284   1.400       .  A
C1283      F1288   1.358       .  S
C1284      C1285   1.418       .  A
C1284      H1289   1.079       .  S
C1285      C1286   1.420       .  A
C1286      F1290   1.357       .  S
C1287      C1292   1.414       .  A
C1287      C1296   1.402       .  A
C1292      C1293   1.414       .  A
C1292      F1297   1.357       .  S
C1293      C1294   1.406       .  A
C1293      H1298   1.083       .  S
C1294      C1295   1.412       .  A
C1295      C1296   1.398       .  A
C1295      F1299   1.356       .  S
C1296      H1300   1.083       .  S
C1301      C1302   1.405       .  A
C1301      C1306   1.403       .  A
C1301      H1311   1.083       .  S
C1302      C1307   1.510       .  S
C1302      C1303   1.415       .  A
C1303      C1304   1.418       .  A
C1303      F1308   1.357       .  S
C1304      C1305   1.409       .  A
C1304      H1309   1.083       .  S
C1305      C1306   1.414       .  A
C1306      F1310   1.358       .  S
C1307      C1312   1.405       .  A
C1307      C1316   1.411       .  A
C1312      C1313   1.401       .  A
C1312      F1317   1.357       .  S
C1313      C1314   1.418       .  A
C1313      H1318   1.079       .  S
C1314      C1315   1.421       .  A
C1315      C1316   1.418       .  A
C1315      F1319   1.357       .  S
C1316      H1320   1.083       .  S
O1321     Zr1357   2.514       .  S
O1321      C1332   1.307       .  A
O1322     Zr1356   2.523       .  S
O1322      C1333   1.309       .  A
O1323     Zr1329   2.426       .  S
O1323      C1334   1.289       .  A
O1324     Zr1329   2.425       .  S
O1324      C1335   1.288       .  A
O1325     Zr1359   2.423       .  S
O1325      C1335   1.288       .  A
O1326     Zr1358   2.421       .  S
O1326      C1334   1.287       .  A
O1327     Zr1329   2.424       .  S
O1327      C1333   1.288       .  A
O1328     Zr1329   2.398       .  S
O1328      C1332   1.284       .  A
Zr1329     O1330   2.332       .  S
Zr1329     O1331   2.335       .  S
Zr1329     O1339   2.342       .  S
Zr1329     O1337   2.338       .  S
O1330     Zr1356   2.365       .  S
O1330     Zr1359   2.333       .  S
O1331     Zr1357   2.359       .  S
O1331     Zr1358   2.324       .  S
C1332      C1965   1.483       .  S
C1333      C1794   1.499       .  S
C1334      C1825   1.482       .  S
C1335      C1845   1.480       .  S
H1336      O1337   0.979       .  S
O1337     Zr1356   2.375       .  S
O1337     Zr1358   2.346       .  S
H1338      O1339   0.965       .  S
O1339     Zr1357   2.368       .  S
O1339     Zr1359   2.335       .  S
O1340     Zr1356   2.539       .  S
O1340      C1363   1.312       .  A
O1341     Zr1357   2.522       .  S
O1341      C1364   1.308       .  A
O1342     Zr1358   2.404       .  S
O1342      C1365   1.285       .  A
O1343     Zr1359   2.417       .  S
O1343      C1366   1.288       .  A
O1344     Zr1359   2.414       .  S
O1344      C1367   1.287       .  A
O1345     Zr1358   2.412       .  S
O1345      C1368   1.288       .  A
O1346     Zr1360   2.448       .  S
O1346      C1369   1.293       .  A
O1347     Zr1360   2.436       .  S
O1347      C1370   1.291       .  A
O1348     Zr1358   2.427       .  S
O1348      C1369   1.289       .  A
O1349     Zr1359   2.416       .  S
O1349      C1370   1.287       .  A
O1350     Zr1356   2.511       .  S
O1350      C1365   1.307       .  A
O1351     Zr1357   2.519       .  S
O1351      C1368   1.308       .  A
O1352     Zr1357   2.509       .  S
O1352      C1367   1.306       .  A
O1353     Zr1356   2.525       .  S
O1353      C1366   1.309       .  A
O1354     Zr1360   2.401       .  S
O1354      C1363   1.286       .  A
O1355     Zr1360   2.413       .  S
O1355      C1364   1.288       .  A
Zr1356     O1362   2.369       .  S
Zr1356     O1374   2.365       .  S
Zr1357     O1361   2.361       .  S
Zr1357     O1372   2.359       .  S
Zr1358     O1362   2.337       .  S
Zr1358     O1372   2.336       .  S
Zr1359     O1361   2.339       .  S
Zr1359     O1374   2.341       .  S
Zr1360     O1361   2.335       .  S
Zr1360     O1362   2.336       .  S
Zr1360     O1374   2.345       .  S
Zr1360     O1372   2.332       .  S
C1363      C1814   1.502       .  S
C1364      C1954   1.499       .  S
C1365      C1745   1.483       .  S
C1366      C1774   1.502       .  S
C1367      C1905   1.487       .  S
C1368      C1925   1.514       .  S
C1369      C1894   1.490       .  S
C1370      C1865   1.481       .  S
H1371      O1372   0.966       .  S
H1373      O1374   0.970       .  S
N1375      H1407   1.037       .  S
N1375      C1379   1.349       .  A
N1376      C2043   1.351       .  A
N1376      C1384   1.348   1_565  A
N1377      H1408   1.038       .  S
N1377      C1381   1.351       .  A
N1378      C2045   1.350   1_545  A
N1378      C1386   1.351       .  A
C1379      C1387   1.386       .  A
C1379      C1395   1.407       .  A
C1380      C1396   1.410       .  A
C1380      C1388   1.385       .  A
C1381      C1389   1.388       .  A
C1381      C1398   1.414       .  A
C1382      C1397   1.407       .  A
C1382      C1390   1.386       .  A
C1383      N2036   1.349       .  A
C1383      C1395   1.407       .  A
C1383      C1391   1.386       .  A
C1384      C1398   1.412       .  A
C1384      C1392   1.387       .  A
C1385      N2038   1.352       .  A
C1385      C1393   1.386       .  A
C1385      C1396   1.412       .  A
C1386      C1394   1.386       .  A
C1386      C1397   1.409       .  A
C1387      H1399   1.082       .  S
C1388      H1400   1.082       .  S
C1389      H1401   1.082       .  S
C1390      H1402   1.082       .  S
C1391      C2052   1.372       .  A
C1391      H1403   1.082       .  S
C1392      C2051   1.374   1_545  A
C1392      H1404   1.082       .  S
C1393      C2054   1.373       .  A
C1393      H1405   1.081       .  S
C1394      C2053   1.370   1_545  A
C1394      H1406   1.082       .  S
C1395      C1874   1.474       .  S
C1396      C1885   1.490       .  S
C1397      C1834   1.478       .  S
C1398      C1854   1.480       .  S
O1409     Zr2105   2.538       .  S
O1409      C1420   1.312       .  A
O1410     Zr1444   2.509       .  S
O1410      C1421   1.306       .  A
O1411      C1422   1.288       .  A
O1412     Zr1417   2.448   1_554  S
O1412      C1423   1.293       .  A
O1413     Zr1447   2.424   1_554  S
O1413      C1423   1.288       .  A
O1414     Zr1446   2.410       .  S
O1414      C1422   1.286       .  A
O1415     Zr1417   2.397   1_554  S
O1415      C1421   1.285       .  A
O1416     Zr1417   2.399       .  S
O1416      C1420   1.286       .  A
Zr1417     O1418   2.332   1_556  S
Zr1417     O1427   2.333       .  S
O1418     Zr1444   2.370       .  S
O1418     Zr1447   2.332   1_554  S
O1419     Zr1446   2.337       .  S
C1420      C1725   1.507       .  S
C1421      C1545   1.489   1_655  S
C1422      C1594   1.473   1_556  S
C1423      C1614   1.491       .  S
H1424      O1425   0.967       .  S
O1425     Zr1446   2.331   1_554  S
H1426      O1427   0.969       .  S
O1427     Zr2105   2.375       .  S
O1427     Zr1447   2.332       .  S
O1428     Zr2104   2.524       .  S
O1428      C1451   1.309       .  A
O1429     Zr1445   2.506   1_455  S
O1429      C1452   1.305       .  A
O1430     Zr1446   2.414   1_554  S
O1430      C1453   1.288       .  A
O1431     Zr1447   2.399   1_554  S
O1431      C1454   1.286       .  A
O1432     Zr2107   2.400   1_556  S
O1432      C1455   1.286       .  A
O1433     Zr2106   2.388   1_546  S
O1433      C1456   1.284       .  A
O1434      C1457   1.284       .  A
O1435     Zr1448   2.429       .  S
O1435      C1458   1.289       .  A
O1436     Zr2106   2.435   1_545  S
O1436      C1457   1.290       .  A
O1437     Zr2107   2.429       .  S
O1437      C1458   1.290       .  A
O1438      C1453   1.309       .  A
O1439      C1456   1.311       .  A
O1440     Zr1445   2.530       .  S
O1440      C1455   1.310       .  A
O1441     Zr1444   2.523       .  S
O1441      C1454   1.308       .  A
O1442     Zr1448   2.414       .  S
O1442      C1451   1.288       .  A
O1443     Zr1448   2.435   1_456  S
O1443      C1452   1.292       .  A
Zr1444     O2088   2.520       .  S
Zr1444     O2122   2.361       .  S
Zr1445     O2069   2.518   1_645  S
Zr1445     O2087   2.375   1_545  S
Zr1445     O1449   2.375       .  S
Zr1446     O2093   2.421       .  S
Zr1446     O2096   2.417   1_556  S
Zr1446     O2110   2.334   1_556  S
Zr1446     O2120   2.329       .  S
Zr1447     O2092   2.402       .  S
Zr1447     O2097   2.428       .  S
Zr1447     O2109   2.332       .  S
Zr1447     O2122   2.328   1_556  S
Zr1448     O1449   2.338   1_554  S
Zr1448     O1462   2.340       .  S
O1449     Zr2107   2.343   1_556  S
O1450     Zr2106   2.320   1_545  S
C1451      C1565   1.492       .  S
C1452      C1705   1.506       .  S
C1453      C1514   1.505       .  S
C1454      C1525   1.506       .  S
C1455      C1674   1.503       .  S
C1456      C1694   1.505       .  S
C1457      C1645   1.476       .  S
C1458      C1625   1.478       .  S
H1459      O1460   0.970       .  S
O1460     Zr2106   2.331   1_546  S
H1461      O1462   0.967       .  S
O1462     Zr2104   2.359       .  S
O1462     Zr2107   2.323       .  S
N1463      H1495   1.036       .  S
N1463      C1468   1.347       .  A
N1463      C1467   1.350       .  A
N1464      C1471   1.351       .  A
N1464      C1472   1.350       .  A
N1465      H1496   1.036       .  S
N1465      C1470   1.348       .  A
N1465      C1469   1.349       .  A
N1466      C1473   1.351       .  A
N1466      C1474   1.352       .  A
C1467      C1475   1.386       .  A
C1467      C1483   1.407       .  A
C1468      C1484   1.408       .  A
C1468      C1476   1.388       .  A
C1469      C1477   1.388       .  A
C1469      C1486   1.410       .  A
C1470      C1485   1.406       .  A
C1470      C1478   1.386       .  A
C1471      C1483   1.411       .  A
C1471      C1479   1.385       .  A
C1472      C1486   1.413       .  A
C1472      C1480   1.387       .  A
C1473      C1481   1.386       .  A
C1473      C1484   1.411       .  A
C1474      C1482   1.386       .  A
C1474      C1485   1.411       .  A
C1475      C1476   1.374       .  A
C1475      H1487   1.083       .  S
C1476      H1488   1.083       .  S
C1477      C1478   1.375       .  A
C1477      H1489   1.082       .  S
C1478      H1490   1.083       .  S
C1479      C1480   1.373       .  A
C1479      H1491   1.082       .  S
C1480      H1492   1.082       .  S
C1481      C1482   1.372       .  A
C1481      H1493   1.082       .  S
C1482      H1494   1.082       .  S
C1483      C1634   1.478       .  S
C1484      C1654   1.471       .  S
C1485      C1585   1.475       .  S
C1486      C1605   1.476       .  S
C1497      C1554   1.577       .  S
C1497      C1574   1.586       .  S
C1497      C1914   1.569       .  S
C1498      C2165   1.581   1_565  S
C1498      C2194   1.583       .  S
C1498      C2605   1.584       .  S
C1498      C1974   1.577   1_565  S
C1499      C1714   1.576       .  S
C1499      C1734   1.584   1_455  S
C1499      C1754   1.576   1_455  S
C1500      C2325   1.574       .  S
C1500      C2345   1.578       .  S
C1500      C2445   1.584       .  S
C1500      C1805   1.587       .  S
C1501      C2162   1.408   1_545  A
C1501      C1506   1.409       .  A
C1501      H1511   1.082       .  S
C1502      C1507   1.528       .  S
C1502      C2161   1.410       .  A
C1502      C1503   1.418       .  A
C1503      C1504   1.409       .  A
C1503      F1508   1.356       .  S
C1504      C1505   1.416       .  A
C1504      H1509   1.083       .  S
C1505      C2166   1.424       .  A
C1505      C2158   1.588       .  S
C1506      C2165   1.423       .  A
C1506      F1510   1.355       .  S
C1507      C1512   1.424       .  A
C1507      C1516   1.409       .  A
C1512      C1513   1.418       .  A
C1512      F2177   1.356       .  S
C1513      C1514   1.405       .  A
C1513      H2178   1.083       .  S
C1514      C1515   1.413       .  A
C1515      C1516   1.403       .  A
C1515      F1519   1.358       .  S
C1516      H1520   1.080       .  S
F1517      C2172   1.356       .  S
H1518      C2173   1.083       .  S
C1521      C2182   1.413   1_545  A
C1521      C1526   1.415       .  A
C1521      H1531   1.083       .  S
C1522      C1527   1.506       .  S
C1522      C2181   1.417       .  A
C1522      C1523   1.404       .  A
C1523      C1524   1.394       .  A
C1523      F1528   1.358       .  S
C1524      C1525   1.414       .  A
C1524      H1529   1.083       .  S
C1525      C2186   1.409       .  A
C1526      C2185   1.409   1_545  A
C1526      F1530   1.357       .  S
C1527      C2192   1.406       .  A
C1527      C1536   1.409       .  A
C1532      C2187   1.408       .  A
C1532      C1533   1.405       .  A
C1532      F1537   1.357       .  S
C1533      C2194   1.417       .  A
C1533      H1538   1.078       .  S
C1534      C2193   1.419       .  A
C1534      C1535   1.418       .  A
C1534      C2158   1.577       .  S
C1535      C1536   1.405       .  A
C1535      F1539   1.357       .  S
C1536      H1540   1.082       .  S
C1541      C1542   1.413       .  A
C1541      C1546   1.409       .  A
C1541      H1551   1.083       .  S
C1542      C1547   1.505       .  S
C1543      C1544   1.396       .  A
C1543      F1548   1.357       .  S
C1544      C1545   1.409       .  A
C1544      H1549   1.083       .  S
C1546      F1550   1.357       .  S
C1547      C1552   1.402       .  A
C1552      C1553   1.398       .  A
C1552      F1557   1.358       .  S
C1553      C1554   1.423       .  A
C1553      H1558   1.083       .  S
C1555      C1556   1.412       .  A
C1555      F1559   1.353       .  S
C1556      H1560   1.083       .  S
C1561      C1562   1.411       .  A
C1561      C1566   1.416       .  A
C1561      H1571   1.083       .  S
C1562      C1567   1.505       .  S
C1563      C1564   1.407       .  A
C1563      F1568   1.358       .  S
C1564      H1569   1.084       .  S
C1565      C1566   1.412       .  A
C1566      F1570   1.357       .  S
C1567      C1572   1.409       .  A
C1572      C1573   1.414       .  A
C1572      F1577   1.356       .  S
C1573      H1578   1.082       .  S
C1574      C1575   1.434       .  A
C1575      C1576   1.396       .  A
C1575      F1579   1.355       .  S
C1576      H1580   1.084       .  S
C1581      C1582   1.405       .  A
C1581      C1586   1.395       .  A
C1581      H1591   1.084       .  S
C1582      C1587   1.467       .  S
C1582      C1583   1.402       .  A
C1583      C1584   1.393       .  A
C1583      F1588   1.358   1_554  S
C1584      C1585   1.403       .  A
C1584      H1589   1.084       .  S
C1585      C1586   1.401       .  A
C1586      F1590   1.357       .  S
C1587      C1592   1.402       .  A
C1587      C1596   1.401       .  A
C1592      C1593   1.389       .  A
C1592      F1597   1.358       .  S
C1593      C1594   1.406       .  A
C1593      H1598   1.083       .  S
C1594      C1595   1.411       .  A
C1595      C1596   1.394       .  A
C1595      F1599   1.358   1_554  S
C1596      H1600   1.083       .  S
C1601      C1602   1.402       .  A
C1601      C1606   1.393       .  A
C1601      H1611   1.083   1_554  S
C1602      C1607   1.476       .  S
C1602      C1603   1.408       .  A
C1603      C1604   1.398       .  A
C1603      F1608   1.357       .  S
C1604      C1605   1.401       .  A
C1604      H1609   1.083       .  S
C1605      C1606   1.403       .  A
C1606      F1610   1.358       .  S
C1607      C1612   1.404       .  A
C1607      C1616   1.399       .  A
C1612      C1613   1.401       .  A
C1612      F1617   1.358       .  S
C1613      C1614   1.409       .  A
C1613      H1618   1.083       .  S
C1614      C1615   1.414       .  A
C1615      C1616   1.396       .  A
C1615      F1619   1.357       .  S
C1616      H1620   1.084       .  S
C1621      C1622   1.405       .  A
C1621      C1626   1.396       .  A
C1621      H1631   1.083       .  S
C1622      C1627   1.484       .  S
C1622      C1623   1.407       .  A
C1623      C1624   1.396       .  A
C1623      F1628   1.357       .  S
C1624      C1625   1.405       .  A
C1624      H1629   1.083   1_554  S
C1625      C1626   1.409       .  A
C1626      F1630   1.358       .  S
C1627      C1632   1.411       .  A
C1627      C1636   1.406       .  A
C1632      C1633   1.397       .  A
C1632      F1637   1.357       .  S
C1633      C1634   1.399       .  A
C1633      H1638   1.083       .  S
C1634      C1635   1.403       .  A
C1635      C1636   1.395       .  A
C1635      F1639   1.358       .  S
C1636      H1640   1.083       .  S
C1641      C1642   1.400       .  A
C1641      C1646   1.393       .  A
C1641      H1651   1.084       .  S
C1642      C1647   1.472       .  S
C1642      C1643   1.405       .  A
C1643      C1644   1.393       .  A
C1643      F1648   1.357       .  S
C1644      C1645   1.405       .  A
C1644      H1649   1.083       .  S
C1645      C1646   1.412       .  A
C1646      F1650   1.358       .  S
C1647      C1652   1.405       .  A
C1647      C1656   1.407       .  A
C1652      C1653   1.390       .  A
C1652      F1657   1.358       .  S
C1653      C1654   1.400       .  A
C1653      H1658   1.084       .  S
C1654      C1655   1.400       .  A
C1655      C1656   1.396       .  A
C1655      F1659   1.357       .  S
C1656      H1660   1.083       .  S
C1661      C2322   1.404       .  A
C1661      C1666   1.403       .  A
C1661      H1671   1.083       .  S
C1662      C1667   1.520       .  S
C1662      C2321   1.412   1_545  A
C1662      C1663   1.411       .  A
C1663      C1664   1.409       .  A
C1663      F1668   1.357       .  S
C1664      C1665   1.419       .  A
C1664      H1669   1.079       .  S
C1665      C2326   1.417   1_545  A
C1665      C2160   1.577       .  S
C1666      C2325   1.422       .  A
C1666      F1670   1.356       .  S
C1667      C2332   1.411   1_545  A
C1667      C1676   1.420       .  A
C1672      C2327   1.406       .  A
C1672      C1673   1.398       .  A
C1672      F1677   1.357       .  S
C1673      C2334   1.408       .  A
C1673      H1678   1.084       .  S
C1674      C2333   1.410   1_545  A
C1674      C1675   1.407       .  A
C1675      C1676   1.418       .  A
C1675      F1679   1.357       .  S
C1676      H1680   1.082       .  S
C1681      C1682   1.408       .  A
C1681      C1686   1.407       .  A
C1681      H1691   1.082       .  S
C1682      C1687   1.507       .  S
C1682      C2343   1.406   1_545  A
C1683      C2342   1.408       .  A
C1683      C1684   1.408       .  A
C1683      F1688   1.357       .  S
C1684      C2345   1.417       .  A
C1684      H1689   1.083       .  S
C1685      C2344   1.420       .  A
C1685      C1686   1.419   1_565  A
C1685      C2160   1.579   1_565  S
C1686      F1690   1.356       .  S
C1687      C1692   1.405       .  A
C1687      C2356   1.415   1_545  A
C1692      C1693   1.399       .  A
C1692      F1697   1.358       .  S
C1693      C1694   1.416       .  A
C1693      H1698   1.083       .  S
C1694      C2355   1.406   1_545  A
C1695      C2354   1.407       .  A
C1695      C1696   1.412       .  A
C1695      F1699   1.357       .  S
C1696      C2347   1.413       .  A
C1696      H1700   1.083       .  S
C1701      C1706   1.399       .  A
C1701      H1711   1.083       .  S
C1702      C1707   1.514       .  S
C1702      C1703   1.410       .  A
C1703      C1704   1.406       .  A
C1703      F1708   1.357       .  S
C1704      H1709   1.084       .  S
C1705      C1706   1.411   1_455  A
C1706      F1710   1.357       .  S
C1707      C1712   1.404       .  A
C1712      C1713   1.399       .  A
C1712      F1717   1.357       .  S
C1713      H1718   1.083       .  S
C1714      C1715   1.416       .  A
C1715      C1716   1.417       .  A
C1715      F1719   1.354       .  S
C1716      H1720   1.083       .  S
C1721      C1726   1.408       .  A
C1721      H1731   1.083       .  S
C1722      C1727   1.506       .  S
C1722      C1723   1.415       .  A
C1723      C1724   1.419       .  A
C1723      F1728   1.356       .  S
C1724      C1725   1.409       .  A
C1724      H1729   1.083       .  S
C1726      F1730   1.358       .  S
C1727      C1736   1.411       .  A
C1732      C1733   1.397       .  A
C1732      F1737   1.358       .  S
C1733      H1738   1.080       .  S
C1734      C1735   1.421       .  A
C1735      C1736   1.419       .  A
C1735      F1739   1.355       .  S
C1736      H1740   1.083       .  S
C1741      C1742   1.406       .  A
C1741      C1746   1.404       .  A
C1741      H1751   1.083       .  S
C1742      C1747   1.505       .  S
C1742      C1743   1.416       .  A
C1743      C1744   1.408       .  A
C1743      F1748   1.358       .  S
C1744      C1745   1.405       .  A
C1744      H1749   1.084       .  S
C1745      C1746   1.407       .  A
C1746      F1750   1.357       .  S
C1747      C1752   1.413       .  A
C1747      C1756   1.397       .  A
C1752      C1753   1.413       .  A
C1752      F1757   1.357       .  S
C1753      C1754   1.415       .  A
C1753      H1758   1.082       .  S
C1754      C1755   1.430       .  A
C1755      C1756   1.397       .  A
C1755      F1759   1.356       .  S
C1756      H1760   1.083       .  S
C1761      C1762   1.401       .  A
C1761      C1766   1.398       .  A
C1761      H1771   1.083       .  S
C1762      C1767   1.512       .  S
C1762      C1763   1.418       .  A
C1763      C1764   1.415       .  A
C1763      F1768   1.357       .  S
C1764      C1765   1.413       .  A
C1764      H1769   1.080       .  S
C1765      C1766   1.422       .  A
C1766      F1770   1.357       .  S
C1767      C1772   1.418       .  A
C1767      C1776   1.406       .  A
C1772      C1773   1.412       .  A
C1772      F1777   1.357       .  S
C1773      C1774   1.404       .  A
C1773      H1778   1.083       .  S
C1774      C1775   1.415       .  A
C1775      C1776   1.406       .  A
C1775      F1779   1.358       .  S
C1776      H1780   1.083       .  S
C1781      C1782   1.406       .  A
C1781      C1786   1.406       .  A
C1781      H1791   1.082       .  S
C1782      C1787   1.515       .  S
C1782      C1783   1.412       .  A
C1783      C1784   1.411       .  A
C1783      F1788   1.357       .  S
C1784      C1785   1.415       .  A
C1784      H1789   1.083       .  S
C1785      C1786   1.425       .  A
C1785      C2160   1.579       .  S
C1786      F1790   1.356       .  S
C1787      C1792   1.413       .  A
C1787      C1796   1.413       .  A
C1792      C1793   1.409       .  A
C1792      F1797   1.358       .  S
C1793      C1794   1.409       .  A
C1793      H1798   1.084       .  S
C1794      C1795   1.407       .  A
C1795      C1796   1.412       .  A
C1795      F1799   1.356       .  S
C1796      H1800   1.083       .  S
C1801      C1802   1.409       .  A
C1801      C1806   1.416       .  A
C1801      H1811   1.083       .  S
C1802      C1807   1.515       .  S
C1802      C1803   1.408       .  A
C1803      C1804   1.407       .  A
C1803      F1808   1.357       .  S
C1804      C1805   1.418       .  A
C1804      H1809   1.079       .  S
C1805      C1806   1.422       .  A
C1806      F1810   1.357       .  S
C1807      C1812   1.408       .  A
C1807      C1816   1.416       .  A
C1812      C1813   1.403       .  A
C1812      F1817   1.357       .  S
C1813      C1814   1.410       .  A
C1813      H1818   1.084       .  S
C1814      C1815   1.410       .  A
C1815      C1816   1.420       .  A
C1815      F1819   1.357       .  S
C1816      H1820   1.083       .  S
C1821      C1822   1.402       .  A
C1821      C1826   1.393       .  A
C1821      H1831   1.083       .  S
C1822      C1827   1.478       .  S
C1822      C1823   1.406       .  A
C1823      C1824   1.396       .  A
C1823      F1828   1.358       .  S
C1824      C1825   1.407       .  A
C1824      H1829   1.083       .  S
C1825      C1826   1.410       .  A
C1826      F1830   1.357       .  S
C1827      C1832   1.409       .  A
C1827      C1836   1.404       .  A
C1832      C1833   1.398       .  A
C1832      F1837   1.357       .  S
C1833      C1834   1.402       .  A
C1833      H1838   1.083       .  S
C1834      C1835   1.403       .  A
C1835      C1836   1.391       .  A
C1835      F1839   1.358       .  S
C1836      H1840   1.083       .  S
C1841      C1842   1.402       .  A
C1841      C1846   1.396       .  A
C1841      H1851   1.083       .  S
C1842      C1847   1.474       .  S
C1842      C1843   1.403       .  A
C1843      C1844   1.392       .  A
C1843      F1848   1.358       .  S
C1844      C1845   1.407       .  A
C1844      H1849   1.083       .  S
C1845      C1846   1.411       .  A
C1846      F1850   1.358       .  S
C1847      C1852   1.406       .  A
C1847      C1856   1.403       .  A
C1852      C1853   1.395       .  A
C1852      F1857   1.358       .  S
C1853      C1854   1.403       .  A
C1853      H1858   1.083       .  S
C1854      C1855   1.405       .  A
C1855      C1856   1.394       .  A
C1855      F1859   1.358       .  S
C1856      H1860   1.083       .  S
C1861      C1862   1.399       .  A
C1861      C1866   1.395       .  A
C1861      H1871   1.083       .  S
C1862      C1867   1.466       .  S
C1862      C1863   1.400       .  A
C1863      C1864   1.395       .  A
C1863      F1868   1.358       .  S
C1864      C1865   1.410       .  A
C1864      H1869   1.083       .  S
C1865      C1866   1.410       .  A
C1866      F1870   1.357       .  S
C1867      C1872   1.401       .  A
C1867      C1876   1.404       .  A
C1872      C1873   1.393       .  A
C1872      F1877   1.357       .  S
C1873      C1874   1.402       .  A
C1873      H1878   1.084       .  S
C1874      C1875   1.403       .  A
C1875      C1876   1.397       .  A
C1875      F1879   1.357       .  S
C1876      H1880   1.083       .  S
C1881      C1882   1.403       .  A
C1881      C1886   1.397       .  A
C1881      H1891   1.083       .  S
C1882      C1887   1.486       .  S
C1882      C1883   1.410       .  A
C1883      C1884   1.400       .  A
C1883      F1888   1.357       .  S
C1884      C1885   1.403       .  A
C1884      H1889   1.083       .  S
C1885      C1886   1.408       .  A
C1886      F1890   1.358       .  S
C1887      C1892   1.407       .  A
C1887      C1896   1.403       .  A
C1892      C1893   1.401       .  A
C1892      F1897   1.358       .  S
C1893      C1894   1.410       .  A
C1893      H1898   1.083       .  S
C1894      C1895   1.410       .  A
C1895      C1896   1.397       .  A
C1895      F1899   1.357       .  S
C1896      H1900   1.083       .  S
C1901      C1902   1.408       .  A
C1901      C1906   1.410       .  A
C1901      H1911   1.083       .  S
C1902      C1907   1.493       .  S
C1902      C1903   1.405       .  A
C1903      C1904   1.405       .  A
C1903      F1908   1.357       .  S
C1904      C1905   1.408       .  A
C1904      H1909   1.084       .  S
C1905      C1906   1.408       .  A
C1906      F1910   1.357       .  S
C1907      C1912   1.411       .  A
C1907      C1916   1.394       .  A
C1912      C1913   1.415       .  A
C1912      F1917   1.357       .  S
C1913      C1914   1.415       .  A
C1913      H1918   1.079       .  S
C1914      C1915   1.425       .  A
C1915      C1916   1.396       .  A
C1915      F1919   1.357       .  S
C1916      H1920   1.084       .  S
C1921      C1922   1.418       .  A
C1921      C1926   1.417       .  A
C1921      H1931   1.082       .  S
C1922      C1927   1.511       .  S
C1922      C1923   1.403       .  A
C1923      C1924   1.398       .  A
C1923      F1928   1.357       .  S
C1924      C1925   1.416       .  A
C1924      H1929   1.083       .  S
C1925      C1926   1.411       .  A
C1926      F1930   1.357       .  S
C1927      C1932   1.401       .  A
C1927      C1936   1.414       .  A
C1932      C1933   1.399       .  A
C1932      F1937   1.357       .  S
C1933      C1934   1.425       .  A
C1933      H1938   1.080       .  S
C1934      C1935   1.418       .  A
C1935      C1936   1.414       .  A
C1935      F1939   1.357       .  S
C1936      H1940   1.083       .  S
C1941      C1942   1.408       .  A
C1941      C1946   1.414       .  A
C1941      H1951   1.083       .  S
C1942      C1947   1.506       .  S
C1942      C1943   1.405       .  A
C1943      C1944   1.402       .  A
C1943      F1948   1.357       .  S
C1944      C1945   1.418       .  A
C1944      H1949   1.079       .  S
C1945      C1946   1.423       .  A
C1945      C2158   1.583       .  S
C1946      F1950   1.357       .  S
C1947      C1952   1.415       .  A
C1947      C1956   1.404       .  A
C1952      C1953   1.417       .  A
C1952      F1957   1.357       .  S
C1953      C1954   1.409       .  A
C1953      H1958   1.083       .  S
C1954      C1955   1.412       .  A
C1955      C1956   1.401       .  A
C1955      F1959   1.358       .  S
C1956      H1960   1.083       .  S
C1961      C1962   1.409       .  A
C1961      C1966   1.402       .  A
C1961      H1971   1.083       .  S
C1962      C1967   1.507       .  S
C1962      C1963   1.414       .  A
C1963      C1964   1.410       .  A
C1963      F1968   1.356       .  S
C1964      C1965   1.404       .  A
C1964      H1969   1.083       .  S
C1965      C1966   1.407       .  A
C1966      F1970   1.356       .  S
C1967      C1972   1.405       .  A
C1967      C1976   1.410       .  A
C1972      C1973   1.399       .  A
C1972      F1977   1.358       .  S
C1973      C1974   1.418       .  A
C1973      H1978   1.077       .  S
C1974      C1975   1.420       .  A
C1975      C1976   1.413       .  A
C1975      F1979   1.357       .  S
C1976      H1980   1.083       .  S
O1981     Zr2017   2.538       .  S
O1981      C1992   1.312       .  A
O1982     Zr2016   2.550       .  S
O1982      C1993   1.313       .  A
O1983     Zr1989   2.426       .  S
O1983      C1994   1.289       .  A
O1984     Zr1989   2.423       .  S
O1984      C1995   1.288       .  A
O1985     Zr2019   2.394       .  S
O1985      C1995   1.284       .  A
O1986     Zr2018   2.432       .  S
O1986      C1994   1.289       .  A
O1987     Zr1989   2.392       .  S
O1987      C1993   1.284       .  A
O1988     Zr1989   2.395       .  S
O1988      C1992   1.284       .  A
Zr1989     O1990   2.335       .  S
Zr1989     O1991   2.324       .  S
Zr1989     O1999   2.337       .  S
Zr1989     O1997   2.334       .  S
O1990     Zr2016   2.364       .  S
O1990     Zr2019   2.332       .  S
O1991     Zr2017   2.367       .  S
O1991     Zr2018   2.328       .  S
C1992      C2625   1.499       .  S
C1993      C2454   1.517       .  S
C1994      C2485   1.485       .  S
C1995      C2505   1.463       .  S
H1996      O1997   0.980       .  S
O1997     Zr2016   2.377       .  S
O1997     Zr2018   2.337       .  S
H1998      O1999   0.965       .  S
O1999     Zr2017   2.355       .  S
O1999     Zr2019   2.333       .  S
O2000     Zr2016   2.542       .  S
O2000      C2023   1.312       .  A
O2001     Zr2017   2.536       .  S
O2001      C2024   1.312       .  A
O2002     Zr2018   2.411       .  S
O2002      C2025   1.287       .  A
O2003     Zr2019   2.386       .  S
O2003      C2026   1.283       .  A
O2004     Zr2019   2.386       .  S
O2004      C2027   1.283       .  A
O2005     Zr2018   2.411       .  S
O2005      C2028   1.288       .  A
O2006     Zr2020   2.417       .  S
O2006      C2029   1.286       .  A
O2007     Zr2020   2.438       .  S
O2007      C2030   1.290       .  A
O2008     Zr2018   2.419       .  S
O2008      C2029   1.288       .  A
O2009     Zr2019   2.426       .  S
O2009      C2030   1.288       .  A
O2010     Zr2016   2.497       .  S
O2010      C2025   1.304       .  A
O2011     Zr2017   2.510       .  S
O2011      C2028   1.307       .  A
O2012     Zr2017   2.535       .  S
O2012      C2027   1.311       .  A
O2013     Zr2016   2.524       .  S
O2013      C2026   1.308       .  A
O2014     Zr2020   2.384       .  S
O2014      C2023   1.283       .  A
O2015     Zr2020   2.392       .  S
O2015      C2024   1.283       .  A
Zr2016     O2022   2.369       .  S
Zr2016     O2034   2.373       .  S
Zr2017     O2021   2.364       .  S
Zr2017     O2032   2.370       .  S
Zr2018     O2022   2.333       .  S
Zr2018     O2032   2.338       .  S
Zr2019     O2021   2.323       .  S
Zr2019     O2034   2.323       .  S
Zr2020     O2021   2.325       .  S
Zr2020     O2022   2.333       .  S
Zr2020     O2034   2.333       .  S
Zr2020     O2032   2.336       .  S
C2023      C2474   1.506       .  S
C2024      C2614   1.495       .  S
C2025      C2405   1.480       .  S
C2026      C2434   1.510       .  S
C2027      C2565   1.505       .  S
C2028      C2585   1.497       .  S
C2029      C2554   1.477       .  S
C2030      C2525   1.487       .  S
H2031      O2032   0.964       .  S
H2033      O2034   0.967       .  S
N2035      H2067   1.038       .  S
N2035      C2039   1.354       .  A
N2036      C2044   1.346       .  A
N2037      H2068   1.039       .  S
N2037      C2041   1.346       .  A
N2038      C2046   1.350       .  A
C2039      C2047   1.386       .  A
C2039      C2055   1.416       .  A
C2040      C2056   1.409       .  A
C2040      C2048   1.387       .  A
C2041      C2049   1.387       .  A
C2041      C2058   1.404       .  A
C2042      C2057   1.408       .  A
C2042      C2050   1.387       .  A
C2043      C2055   1.412       .  A
C2043      C2051   1.386       .  A
C2044      C2058   1.406       .  A
C2044      C2052   1.387       .  A
C2045      C2053   1.387       .  A
C2045      C2056   1.410       .  A
C2046      C2054   1.387       .  A
C2046      C2057   1.412       .  A
C2047      H2059   1.082       .  S
C2048      H2060   1.082       .  S
C2049      H2061   1.083       .  S
C2050      H2062   1.082       .  S
C2051      H2063   1.082       .  S
C2052      H2064   1.083       .  S
C2053      H2065   1.082       .  S
C2054      H2066   1.082       .  S
C2055      C2534   1.491       .  S
C2056      C2545   1.475       .  S
C2057      C2494   1.478       .  S
C2058      C2514   1.464       .  S
O2069      C2080   1.308   1_455  A
O2070     Zr2104   2.517   1_465  S
O2070      C2081   1.308       .  A
O2071      C2082   1.289       .  A
O2072     Zr2077   2.432       .  S
O2072      C2083   1.290       .  A
O2073     Zr2107   2.421   1_565  S
O2073      C2083   1.287       .  A
O2074     Zr2106   2.418       .  S
O2074      C2082   1.287       .  A
O2075     Zr2077   2.428   1_455  S
O2075      C2081   1.289       .  A
O2076     Zr2077   2.408   1_556  S
O2076      C2080   1.288       .  A
Zr2077     O2078   2.336       .  S
Zr2077     O2087   2.339   1_554  S
O2078     Zr2104   2.360   1_565  S
O2078     Zr2107   2.334   1_565  S
O2079     Zr2106   2.341   1_556  S
C2080      C2385   1.496       .  S
C2081      C2205   1.496       .  S
C2082      C2254   1.476       .  S
C2083      C2274   1.482       .  S
H2084      O2085   0.968       .  S
O2085     Zr2106   2.333       .  S
H2086      O2087   0.969       .  S
O2087     Zr2107   2.339   1_566  S
O2088      C2111   1.308       .  A
O2089     Zr2105   2.540       .  S
O2089      C2112   1.312       .  A
O2090     Zr2106   2.398       .  S
O2090      C2113   1.285       .  A
O2091     Zr2107   2.425   1_565  S
O2091      C2114   1.289       .  A
O2092      C2115   1.286       .  A
O2093      C2116   1.289       .  A
O2094      C2117   1.290       .  A
O2095     Zr2108   2.422       .  S
O2095      C2118   1.288   1_556  A
O2096      C2117   1.287       .  A
O2097      C2118   1.289   1_556  A
O2098      C2113   1.311       .  A
O2099      C2116   1.305       .  A
O2100     Zr2105   2.509       .  S
O2100      C2115   1.306       .  A
O2101     Zr2104   2.519       .  S
O2101      C2114   1.308   1_545  A
O2102     Zr2108   2.416   1_554  S
O2102      C2111   1.288       .  A
O2103     Zr2108   2.400       .  S
O2103      C2112   1.286       .  A
Zr2105     O2109   2.370       .  S
Zr2108     O2109   2.337       .  S
Zr2108     O2122   2.325   1_556  S
C2111      C2225   1.494       .  S
C2112      C2365   1.511       .  S
C2113      C2174   1.503       .  S
C2114      C2185   1.499       .  S
C2115      C2334   1.486       .  S
C2116      C2354   1.491       .  S
C2117      C2305   1.478       .  S
C2118      C2285   1.482       .  S
H2119      O2120   0.971       .  S
H2121      O2122   0.967       .  S
N2123      H2155   1.038       .  S
N2123      C2128   1.350       .  A
N2123      C2127   1.349       .  A
N2124      C2131   1.350       .  A
N2124      C2132   1.351       .  A
N2125      H2156   1.038       .  S
N2125      C2130   1.347       .  A
N2125      C2129   1.348       .  A
N2126      C2133   1.350       .  A
N2126      C2134   1.349       .  A
C2127      C2135   1.386       .  A
C2127      C2143   1.407       .  A
C2128      C2144   1.410       .  A
C2128      C2136   1.387       .  A
C2129      C2137   1.387       .  A
C2129      C2146   1.406       .  A
C2130      C2145   1.404       .  A
C2130      C2138   1.386       .  A
C2131      C2143   1.412       .  A
C2131      C2139   1.387       .  A
C2132      C2146   1.410       .  A
C2132      C2140   1.385       .  A
C2133      C2141   1.386       .  A
C2133      C2144   1.410       .  A
C2134      C2142   1.386       .  A
C2134      C2145   1.408       .  A
C2135      C2136   1.375       .  A
C2135      H2147   1.082       .  S
C2136      H2148   1.082       .  S
C2137      C2138   1.375       .  A
C2137      H2149   1.083       .  S
C2138      H2150   1.083       .  S
C2139      C2140   1.372       .  A
C2139      H2151   1.082       .  S
C2140      H2152   1.082       .  S
C2141      C2142   1.372       .  A
C2141      H2153   1.082       .  S
C2142      H2154   1.082       .  S
C2143      C2294   1.478       .  S
C2144      C2314   1.481       .  S
C2145      C2245   1.470       .  S
C2146      C2265   1.477       .  S
C2157      C2214   1.575       .  S
C2157      C2234   1.568       .  S
C2157      C2574   1.569       .  S
C2158      C2634   1.582       .  S
C2159      C2374   1.581       .  S
C2159      C2394   1.571       .  S
C2159      C2414   1.569       .  S
C2160      C2465   1.577   1_545  S
C2161      C2166   1.412       .  A
C2161      H2171   1.082       .  S
C2162      C2167   1.520       .  S
C2162      C2163   1.415       .  A
C2163      C2164   1.407       .  A
C2163      F2168   1.357       .  S
C2164      C2165   1.416   1_565  A
C2164      H2169   1.083       .  S
C2166      F2170   1.354       .  S
C2167      C2172   1.421   1_565  A
C2167      C2176   1.407       .  A
C2172      C2173   1.416       .  A
C2173      C2174   1.405   1_545  A
C2174      C2175   1.415       .  A
C2175      C2176   1.401       .  A
C2175      F2179   1.359       .  S
C2176      H2180   1.081       .  S
C2181      C2186   1.417       .  A
C2181      H2191   1.083       .  S
C2182      C2187   1.511       .  S
C2182      C2183   1.409       .  A
C2183      C2184   1.406       .  A
C2183      F2188   1.357       .  S
C2184      C2185   1.408       .  A
C2184      H2189   1.083       .  S
C2186      F2190   1.357       .  S
C2187      C2196   1.408   1_565  A
C2192      C2193   1.407       .  A
C2192      F2197   1.357       .  S
C2193      H2198   1.078       .  S
C2194      C2195   1.423   1_565  A
C2195      C2196   1.412       .  A
C2195      F2199   1.357       .  S
C2196      H2200   1.083       .  S
C2201      C2202   1.399       .  A
C2201      C2206   1.401       .  A
C2201      H2211   1.084       .  S
C2202      C2207   1.503       .  S
C2203      C2204   1.412       .  A
C2203      F2208   1.357       .  S
C2204      C2205   1.410       .  A
C2204      H2209   1.084       .  S
C2206      F2210   1.359       .  S
C2207      C2212   1.399       .  A
C2212      C2213   1.399       .  A
C2212      F2217   1.357       .  S
C2213      C2214   1.423       .  A
C2213      H2218   1.081       .  S
C2215      C2216   1.421       .  A
C2215      F2219   1.355       .  S
C2216      H2220   1.082       .  S
C2221      C2222   1.407       .  A
C2221      C2226   1.408       .  A
C2221      H2231   1.083       .  S
C2222      C2227   1.509       .  S
C2223      C2224   1.408       .  A
C2223      F2228   1.357       .  S
C2224      H2229   1.083       .  S
C2225      C2226   1.413       .  A
C2226      F2230   1.358       .  S
C2227      C2232   1.416       .  A
C2232      C2233   1.418       .  A
C2232      F2237   1.357       .  S
C2233      H2238   1.081       .  S
C2234      C2235   1.422       .  A
C2235      C2236   1.393       .  A
C2235      F2239   1.354       .  S
C2236      H2240   1.083       .  S
C2241      C2242   1.405       .  A
C2241      C2246   1.394       .  A
C2241      H2251   1.083       .  S
C2242      C2247   1.470       .  S
C2242      C2243   1.404       .  A
C2243      C2244   1.393       .  A
C2243      F2248   1.358   1_554  S
C2244      C2245   1.401       .  A
C2244      H2249   1.084       .  S
C2245      C2246   1.399       .  A
C2246      F2250   1.357       .  S
C2247      C2252   1.403       .  A
C2247      C2256   1.401       .  A
C2252      C2253   1.393       .  A
C2252      F2257   1.358       .  S
C2253      C2254   1.406       .  A
C2253      H2258   1.083       .  S
C2254      C2255   1.410       .  A
C2255      C2256   1.394       .  A
C2255      F2259   1.358   1_554  S
C2256      H2260   1.083       .  S
C2261      C2262   1.400       .  A
C2261      C2266   1.394       .  A
C2261      H2271   1.083   1_554  S
C2262      C2267   1.467       .  S
C2262      C2263   1.405       .  A
C2263      C2264   1.395       .  A
C2263      F2268   1.357       .  S
C2264      C2265   1.400       .  A
C2264      H2269   1.083       .  S
C2265      C2266   1.407       .  A
C2266      F2270   1.358       .  S
C2267      C2272   1.402       .  A
C2267      C2276   1.398       .  A
C2272      C2273   1.396       .  A
C2272      F2277   1.358       .  S
C2273      C2274   1.407       .  A
C2273      H2278   1.083       .  S
C2274      C2275   1.414       .  A
C2275      C2276   1.395       .  A
C2275      F2279   1.358       .  S
C2276      H2280   1.084       .  S
C2281      C2282   1.401       .  A
C2281      C2286   1.394       .  A
C2281      H2291   1.084       .  S
C2282      C2287   1.472       .  S
C2282      C2283   1.402       .  A
C2283      C2284   1.395       .  A
C2283      F2288   1.358       .  S
C2284      C2285   1.408       .  A
C2284      H2289   1.083       .  S
C2285      C2286   1.412       .  A
C2286      F2290   1.358       .  S
C2287      C2292   1.407       .  A
C2287      C2296   1.401       .  A
C2292      C2293   1.395       .  A
C2292      F2297   1.358       .  S
C2293      C2294   1.401       .  A
C2293      H2298   1.083       .  S
C2294      C2295   1.406       .  A
C2295      C2296   1.393       .  A
C2295      F2299   1.358       .  S
C2296      H2300   1.083       .  S
C2301      C2302   1.400       .  A
C2301      C2306   1.395       .  A
C2301      H2311   1.083       .  S
C2302      C2307   1.469       .  S
C2302      C2303   1.402       .  A
C2303      C2304   1.396       .  A
C2303      F2308   1.358       .  S
C2304      C2305   1.409       .  A
C2304      H2309   1.083       .  S
C2305      C2306   1.408       .  A
C2306      F2310   1.357       .  S
C2307      C2312   1.402       .  A
C2307      C2316   1.404       .  A
C2312      C2313   1.392       .  A
C2312      F2317   1.357       .  S
C2313      C2314   1.403       .  A
C2313      H2318   1.084       .  S
C2314      C2315   1.405       .  A
C2315      C2316   1.398       .  A
C2315      F2319   1.358       .  S
C2316      H2320   1.083       .  S
C2321      C2326   1.406       .  A
C2321      H2331   1.081       .  S
C2322      C2327   1.499       .  S
C2322      C2323   1.406       .  A
C2323      C2324   1.406       .  A
C2323      F2328   1.357       .  S
C2324      C2325   1.416       .  A
C2324      H2329   1.082       .  S
C2326      F2330   1.358       .  S
C2327      C2336   1.413       .  A
C2332      C2333   1.399       .  A
C2332      F2337   1.357       .  S
C2333      H2338   1.084       .  S
C2334      C2335   1.406       .  A
C2335      C2336   1.411       .  A
C2335      F2339   1.357       .  S
C2336      H2340   1.083       .  S
C2341      C2342   1.404       .  A
C2341      C2346   1.404       .  A
C2341      H2351   1.083       .  S
C2342      C2347   1.504       .  S
C2343      C2344   1.406       .  A
C2343      F2348   1.358       .  S
C2344      H2349   1.078       .  S
C2345      C2346   1.423       .  A
C2346      F2350   1.356       .  S
C2347      C2352   1.408       .  A
C2352      C2353   1.401       .  A
C2352      F2357   1.357       .  S
C2353      C2354   1.407       .  A
C2353      H2358   1.084       .  S
C2355      C2356   1.415       .  A
C2355      F2359   1.356       .  S
C2356      H2360   1.083       .  S
C2361      C2366   1.402       .  A
C2361      H2371   1.084       .  S
C2362      C2367   1.510       .  S
C2362      C2363   1.418       .  A
C2363      C2364   1.416       .  A
C2363      F2368   1.357       .  S
C2364      H2369   1.083       .  S
C2365      C2366   1.422       .  A
C2366      F2370   1.358       .  S
C2367      C2372   1.402       .  A
C2372      C2373   1.399       .  A
C2372      F2377   1.357       .  S
C2373      H2378   1.079       .  S
C2374      C2375   1.418   1_655  A
C2375      C2376   1.416       .  A
C2375      F2379   1.355       .  S
C2376      H2380   1.083       .  S
C2381      C2386   1.412       .  A
C2381      H2391   1.083       .  S
C2382      C2387   1.513       .  S
C2382      C2383   1.408       .  A
C2383      C2384   1.399       .  A
C2383      F2388   1.357       .  S
C2384      C2385   1.408       .  A
C2384      H2389   1.084       .  S
C2386      F2390   1.357       .  S
C2387      C2396   1.415       .  A
C2392      C2393   1.397       .  A
C2392      F2397   1.357       .  S
C2393      H2398   1.083       .  S
C2394      C2395   1.414       .  A
C2395      C2396   1.411       .  A
C2395      F2399   1.354       .  S
C2396      H2400   1.082       .  S
C2401      C2402   1.404       .  A
C2401      C2406   1.405       .  A
C2401      H2411   1.083       .  S
C2402      C2407   1.492       .  S
C2402      C2403   1.409       .  A
C2403      C2404   1.404       .  A
C2403      F2408   1.357       .  S
C2404      C2405   1.402       .  A
C2404      H2409   1.083       .  S
C2405      C2406   1.410       .  A
C2406      F2410   1.358       .  S
C2407      C2412   1.410       .  A
C2407      C2416   1.395       .  A
C2412      C2413   1.414       .  A
C2412      F2417   1.357       .  S
C2413      C2414   1.414       .  A
C2413      H2418   1.080       .  S
C2414      C2415   1.424       .  A
C2415      C2416   1.394       .  A
C2415      F2419   1.357       .  S
C2416      H2420   1.084       .  S
C2421      C2422   1.395       .  A
C2421      C2426   1.398       .  A
C2421      H2431   1.083       .  S
C2422      C2427   1.510       .  S
C2422      C2423   1.416       .  A
C2423      C2424   1.415       .  A
C2423      F2428   1.357       .  S
C2424      C2425   1.415       .  A
C2424      H2429   1.082       .  S
C2425      C2426   1.437       .  A
C2426      F2430   1.356       .  S
C2427      C2432   1.401       .  A
C2427      C2436   1.420       .  A
C2432      C2433   1.395       .  A
C2432      F2437   1.357       .  S
C2433      C2434   1.418       .  A
C2433      H2438   1.083       .  S
C2434      C2435   1.408       .  A
C2435      C2436   1.417       .  A
C2435      F2439   1.357       .  S
C2436      H2440   1.083       .  S
C2441      C2442   1.412       .  A
C2441      C2446   1.411       .  A
C2441      H2451   1.083       .  S
C2442      C2447   1.517       .  S
C2442      C2443   1.407       .  A
C2443      C2444   1.411       .  A
C2443      F2448   1.357       .  S
C2444      C2445   1.422       .  A
C2444      H2449   1.079       .  S
C2445      C2446   1.418       .  A
C2446      F2450   1.357       .  S
C2447      C2452   1.403       .  A
C2447      C2456   1.420       .  A
C2452      C2453   1.398       .  A
C2452      F2457   1.357       .  S
C2453      C2454   1.416       .  A
C2453      H2458   1.083       .  S
C2454      C2455   1.412       .  A
C2455      C2456   1.425       .  A
C2455      F2459   1.357       .  S
C2456      H2460   1.083       .  S
C2461      C2462   1.404       .  A
C2461      C2466   1.408       .  A
C2461      H2471   1.083       .  S
C2462      C2467   1.508       .  S
C2462      C2463   1.412       .  A
C2463      C2464   1.405       .  A
C2463      F2468   1.357       .  S
C2464      C2465   1.412       .  A
C2464      H2469   1.083       .  S
C2465      C2466   1.424       .  A
C2466      F2470   1.356       .  S
C2467      C2472   1.404       .  A
C2467      C2476   1.417       .  A
C2472      C2473   1.396       .  A
C2472      F2477   1.358       .  S
C2473      C2474   1.414       .  A
C2473      H2478   1.084       .  S
C2474      C2475   1.408       .  A
C2475      C2476   1.419       .  A
C2475      F2479   1.356       .  S
C2476      H2480   1.083       .  S
C2481      C2482   1.398       .  A
C2481      C2486   1.396       .  A
C2481      H2491   1.084       .  S
C2482      C2487   1.469       .  S
C2482      C2483   1.402       .  A
C2483      C2484   1.396       .  A
C2483      F2488   1.358       .  S
C2484      C2485   1.409       .  A
C2484      H2489   1.083       .  S
C2485      C2486   1.413       .  A
C2486      F2490   1.357       .  S
C2487      C2492   1.405       .  A
C2487      C2496   1.401       .  A
C2492      C2493   1.395       .  A
C2492      F2497   1.357       .  S
C2493      C2494   1.401       .  A
C2493      H2498   1.083       .  S
C2494      C2495   1.406       .  A
C2495      C2496   1.395       .  A
C2495      F2499   1.358       .  S
C2496      H2500   1.083       .  S
C2501      C2502   1.405       .  A
C2501      C2506   1.390       .  A
C2501      H2511   1.083       .  S
C2502      C2507   1.473       .  S
C2502      C2503   1.406       .  A
C2503      C2504   1.387       .  A
C2503      F2508   1.358       .  S
C2504      C2505   1.404       .  A
C2504      H2509   1.084       .  S
C2505      C2506   1.405       .  A
C2506      F2510   1.358       .  S
C2507      C2512   1.410       .  A
C2507      C2516   1.405       .  A
C2512      C2513   1.390       .  A
C2512      F2517   1.357       .  S
C2513      C2514   1.396       .  A
C2513      H2518   1.083       .  S
C2514      C2515   1.400       .  A
C2515      C2516   1.390       .  A
C2515      F2519   1.358       .  S
C2516      H2520   1.083       .  S
C2521      C2522   1.402       .  A
C2521      C2526   1.398       .  A
C2521      H2531   1.083       .  S
C2522      C2527   1.482       .  S
C2522      C2523   1.406       .  A
C2523      C2524   1.400       .  A
C2523      F2528   1.358       .  S
C2524      C2525   1.409       .  A
C2524      H2529   1.083       .  S
C2525      C2526   1.410       .  A
C2526      F2530   1.357       .  S
C2527      C2532   1.404       .  A
C2527      C2536   1.407       .  A
C2532      C2533   1.396       .  A
C2532      F2537   1.357       .  S
C2533      C2534   1.404       .  A
C2533      H2538   1.083       .  S
C2534      C2535   1.407       .  A
C2535      C2536   1.402       .  A
C2535      F2539   1.358       .  S
C2536      H2540   1.083       .  S
C2541      C2542   1.401       .  A
C2541      C2546   1.392       .  A
C2541      H2551   1.083       .  S
C2542      C2547   1.469       .  S
C2542      C2543   1.406       .  A
C2543      C2544   1.395       .  A
C2543      F2548   1.358       .  S
C2544      C2545   1.401       .  A
C2544      H2549   1.083       .  S
C2545      C2546   1.404       .  A
C2546      F2550   1.358       .  S
C2547      C2552   1.401       .  A
C2547      C2556   1.402       .  A
C2552      C2553   1.389       .  A
C2552      F2557   1.357       .  S
C2553      C2554   1.406       .  A
C2553      H2558   1.083       .  S
C2554      C2555   1.412       .  A
C2555      C2556   1.396       .  A
C2555      F2559   1.358       .  S
C2556      H2560   1.084       .  S
C2561      C2562   1.412       .  A
C2561      C2566   1.413       .  A
C2561      H2571   1.083       .  S
C2562      C2567   1.497       .  S
C2562      C2563   1.402       .  A
C2563      C2564   1.400       .  A
C2563      F2568   1.359       .  S
C2564      C2565   1.418       .  A
C2564      H2569   1.083       .  S
C2565      C2566   1.407       .  A
C2566      F2570   1.356       .  S
C2567      C2572   1.410       .  A
C2567      C2576   1.396       .  A
C2572      C2573   1.411       .  A
C2572      F2577   1.357       .  S
C2573      C2574   1.415       .  A
C2573      H2578   1.082       .  S
C2574      C2575   1.427       .  A
C2575      C2576   1.399       .  A
C2575      F2579   1.356       .  S
C2576      H2580   1.084       .  S
C2581      C2582   1.415       .  A
C2581      C2586   1.413       .  A
C2581      H2591   1.083       .  S
C2582      C2587   1.505       .  S
C2582      C2583   1.405       .  A
C2583      C2584   1.401       .  A
C2583      F2588   1.357       .  S
C2584      C2585   1.411       .  A
C2584      H2589   1.084       .  S
C2585      C2586   1.408       .  A
C2586      F2590   1.357       .  S
C2587      C2592   1.400       .  A
C2587      C2596   1.411       .  A
C2592      C2593   1.400       .  A
C2592      F2597   1.357       .  S
C2593      C2594   1.421       .  A
C2593      H2598   1.083       .  S
C2594      C2595   1.421       .  A
C2595      C2596   1.415       .  A
C2595      F2599   1.354       .  S
C2596      H2600   1.083       .  S
C2601      C2602   1.411       .  A
C2601      C2606   1.415       .  A
C2601      H2611   1.083       .  S
C2602      C2607   1.510       .  S
C2602      C2603   1.406       .  A
C2603      C2604   1.400       .  A
C2603      F2608   1.357       .  S
C2604      C2605   1.418       .  A
C2604      H2609   1.079       .  S
C2605      C2606   1.421       .  A
C2606      F2610   1.357       .  S
C2607      C2612   1.415       .  A
C2607      C2616   1.406       .  A
C2612      C2613   1.417       .  A
C2612      F2617   1.357       .  S
C2613      C2614   1.408       .  A
C2613      H2618   1.083       .  S
C2614      C2615   1.411       .  A
C2615      C2616   1.401       .  A
C2615      F2619   1.358       .  S
C2616      H2620   1.083       .  S
C2621      C2622   1.405       .  A
C2621      C2626   1.405       .  A
C2621      H2631   1.083       .  S
C2622      C2627   1.508       .  S
C2622      C2623   1.413       .  A
C2623      C2624   1.414       .  A
C2623      F2628   1.356       .  S
C2624      C2625   1.406       .  A
C2624      H2629   1.083       .  S
C2625      C2626   1.415       .  A
C2626      F2630   1.358       .  S
C2627      C2632   1.404       .  A
C2627      C2636   1.409       .  A
C2632      C2633   1.404       .  A
C2632      F2637   1.358       .  S
C2633      C2634   1.423       .  A
C2633      H2638   1.079       .  S
C2634      C2635   1.418       .  A
C2635      C2636   1.414       .  A
C2635      F2639   1.357       .  S
C2636      H2640   1.083       .  S
