geometry optimzed in LAMMPS
_audit_creation_date              2020-11-30 
_audit_creation_method            'lammps2cif' 
_symmetry_space_group_name_H-M    'P1' 
_symmetry_Int_Tables_number       1 
_symmetry_cell_setting            triclinic 
loop_ 
_symmetry_equiv_pos_as_xyz 
  x,y,z 
_cell_length_a                    67.16076967 
_cell_length_b                    67.06125677929514 
_cell_length_c                    67.03769221693368 
_cell_angle_alpha                 90.0536825314625 
_cell_angle_beta                  90.01238335707691 
_cell_angle_gamma                 89.98583540892778 
loop_ 
_atom_site_label 
_atom_site_type_symbol 
_atom_site_fract_x 
_atom_site_fract_y 
_atom_site_fract_z 
_atom_site_charge 
C1          C  0.45246414  0.42814674  0.58931289     0.80500
N2          N  0.44449071  0.44570048  0.58289929    -0.77800
C3          C  0.42715145  0.45293521  0.59052344     0.82900
N4          N  0.41728593  0.44207976  0.60462180    -0.77800
C5          C  0.42471800  0.42423468  0.61102663     0.83000
N6          N  0.44237122  0.41757752  0.60347957    -0.79500
C7          C  0.40079736  0.53255425  0.56381114     0.80500
N8          N  0.40869340  0.54033184  0.54675848    -0.77800
C9          C  0.40339567  0.55881149  0.54026586     0.82900
N10         N  0.39035201  0.56986989  0.55112131    -0.77800
C11         C  0.38244179  0.56261458  0.56831530     0.83000
N12         N  0.38758345  0.54387943  0.57449654    -0.79500
C13         C  0.55717467  0.40140230  0.53656798     0.80500
N14         N  0.56783441  0.38864020  0.54835286    -0.77800
C15         C  0.56039341  0.38194483  0.56609626     0.82900
N16         N  0.54196799  0.38798126  0.57201036    -0.77800
C17         C  0.53095822  0.40054669  0.56047328     0.83000
N18         N  0.53875371  0.40721043  0.54290116    -0.79500
C19         C  0.59325894  0.45834444  0.43732220     0.80500
N20         N  0.58532810  0.45051687  0.45435660    -0.77800
C21         C  0.59022844  0.43182446  0.46065623     0.82900
N22         N  0.60312302  0.42066920  0.44952426    -0.77800
C23         C  0.61105537  0.42805073  0.43228051     0.83000
N24         N  0.60613693  0.44692833  0.42640078    -0.79500
C25         C  0.56708628  0.53885023  0.41330197     0.80500
N26         N  0.54990773  0.54593025  0.42149926    -0.77800
C27         C  0.54211202  0.56389532  0.41599235     0.82900
N28         N  0.55219719  0.57498602  0.40224865    -0.77800
C29         C  0.56962297  0.56844935  0.39410160     0.83000
N30         N  0.57689040  0.55021239  0.39953553    -0.79500
C31         C  0.46318500  0.59151794  0.44308812     0.80500
N32         N  0.45217317  0.60339358  0.43069997    -0.77800
C33         C  0.43315194  0.60866605  0.43570222     0.82900
N34         N  0.42534895  0.60209026  0.45326803    -0.77800
C35         C  0.43618473  0.59040051  0.46584627     0.83000
N36         N  0.45501758  0.58515813  0.46052915    -0.79500
C37         C  0.59364076  0.03002505  0.05895002     0.80500
N38         N  0.58715834  0.03669861  0.04091682    -0.77800
C39         C  0.59344012  0.05449167  0.03332697     0.82900
N40         N  0.60639806  0.06577269  0.04441876    -0.77800
C41         C  0.61292478  0.05940207  0.06270104     0.83000
N42         N  0.60645147  0.04146485  0.06979480    -0.79500
C43         C  0.55977553  0.08051290  0.95602027     0.80500
N44         N  0.57079241  0.09165444  0.94310115    -0.77800
C45         C  0.56323422  0.09755230  0.92516427     0.82900
N46         N  0.54419838  0.09221454  0.92020213    -0.77800
C47         C  0.53276395  0.08124945  0.93306395     0.83000
N48         N  0.54073356  0.07539178  0.95091123    -0.79500
C49         C  0.42554440  0.03133565  0.91359140     0.80500
N50         N  0.41426891  0.04293665  0.90121420    -0.77800
C51         C  0.42097421  0.06090972  0.89444490     0.82900
N52         N  0.43943981  0.06733190  0.90009665    -0.77800
C53         C  0.45107454  0.05603397  0.91240752     0.83000
N54         N  0.44401741  0.03808406  0.91903170    -0.79500
C55         C  0.56308032  0.95325883  0.08736702     0.80500
N56         N  0.54432940  0.94730915  0.08221676    -0.77800
C57         C  0.53653769  0.92994366  0.08941272     0.82900
N58         N  0.54775548  0.91859353  0.10209098    -0.77800
C59         C  0.56656884  0.92432862  0.10737858     0.83000
N60         N  0.57408976  0.94166261  0.09990535    -0.79500
C61         C  0.45555961  0.90337003  0.06641329     0.80500
N62         N  0.44598985  0.88942732  0.07779735    -0.77800
C63         C  0.42796948  0.88182061  0.07219721     0.82900
N64         N  0.41948313  0.88815491  0.05484462    -0.77800
C65         C  0.42862157  0.90218293  0.04337134     0.83000
N66         N  0.44656647  0.90968757  0.04924891    -0.79500
C67         C  0.39511430  0.95333785  0.94150100     0.80500
N68         N  0.40138355  0.94683517  0.95972400    -0.77800
C69         C  0.39566522  0.92870287  0.96687490     0.82900
N70         N  0.38369144  0.91685376  0.95547840    -0.77800
C71         C  0.37710602  0.92310533  0.93726831     0.83000
N72         N  0.38287321  0.94141755  0.93037150    -0.79500
C73         C  0.06163218  0.58278136  0.04068596     0.80500
N74         N  0.07374973  0.59470435  0.05179417    -0.77800
C75         C  0.06804766  0.60136240  0.07017287     0.82900
N76         N  0.04974834  0.59593622  0.07742972    -0.77800
C77         C  0.03729446  0.58407300  0.06635845     0.83000
N78         N  0.04343378  0.57760015  0.04803828    -0.79500
C79         C  0.08596426  0.55436936  0.96103585     0.80500
N80         N  0.07920813  0.53627735  0.95453607    -0.77800
C81         C  0.08403339  0.52931548  0.93604668     0.82900
N82         N  0.09577804  0.54056922  0.92393322    -0.77800
C83         C  0.10272571  0.55867311  0.93001247     0.83000
N84         N  0.09779474  0.56547263  0.94862676    -0.79500
C85         C  0.03452790  0.42396180  0.90930593     0.80500
N86         N  0.04674858  0.41273202  0.89755046    -0.77800
C87         C  0.06487998  0.41979736  0.89168264     0.82900
N88         N  0.07070177  0.43836263  0.89763059    -0.77800
C89         C  0.05864481  0.44986412  0.90932077     0.83000
N90         N  0.04061291  0.44249151  0.91512553    -0.79500
C91         C  0.95793265  0.55631219  0.09149198     0.80500
N92         N  0.94554231  0.56723131  0.10337805    -0.77800
C93         C  0.92703466  0.56034296  0.10831424     0.82900
N94         N  0.92097598  0.54228249  0.10112074    -0.77800
C95         C  0.93316245  0.53108396  0.08920022     0.83000
N96         N  0.95162471  0.53826472  0.08447596    -0.79500
C97         C  0.90206893  0.42736970  0.03691515     0.80500
N98         N  0.90854660  0.44581195  0.04254700    -0.77800
C99         C  0.90435803  0.45307835  0.06108133     0.82900
N100        N  0.89365274  0.44165271  0.07407718    -0.77800
C101        C  0.88701346  0.42316999  0.06866669     0.83000
N102        N  0.89140641  0.41610793  0.05007962    -0.79500
C103        C  0.95551901  0.39553031  0.93597802     0.80500
N104        N  0.94796881  0.40180311  0.95380610    -0.77800
C105        C  0.92963622  0.39588635  0.96017515     0.82900
N106        N  0.91847620  0.38360507  0.94839591    -0.77800
C107        C  0.92562331  0.37709608  0.93047605     0.83000
N108        N  0.94414077  0.38308736  0.92447008    -0.79500
C109        C  0.03144497  0.05900737  0.59548634     0.80500
N110        N  0.04232667  0.07057400  0.60831797    -0.77800
C111        C  0.06085724  0.06482409  0.61450945     0.82900
N112        N  0.06854220  0.04723182  0.60772692    -0.77800
C113        C  0.05796488  0.03548382  0.59493630     0.83000
N114        N  0.03954021  0.04151014  0.58888612    -0.79500
C115        C  0.09192839  0.93643951  0.53672034     0.80500
N116        N  0.10408938  0.92502937  0.54845010    -0.77800
C117        C  0.10928999  0.93110899  0.56721237     0.82900
N118        N  0.10213824  0.94880939  0.57424520    -0.77800
C119        C  0.09015974  0.96053837  0.56275777     0.83000
N120        N  0.08509269  0.95423662  0.54403707    -0.79500
C121        C  0.06517508  0.90618189  0.45743844     0.80500
N122        N  0.04719680  0.91216117  0.44995707    -0.77800
C123        C  0.04004157  0.90515206  0.43224776     0.82900
N124        N  0.05143630  0.89216793  0.42145977    -0.77800
C125        C  0.06967371  0.88612808  0.42822400     0.83000
N126        N  0.07628250  0.89304071  0.44632278    -0.79500
C127        C  0.95181382  0.08360793  0.56680295     0.80500
N128        N  0.93985165  0.09661167  0.57701271    -0.77800
C129        C  0.92155424  0.10178917  0.56966878     0.82900
N130        N  0.91548087  0.09405485  0.55190850    -0.77800
C131        C  0.92725650  0.08126023  0.54142080     0.83000
N132        N  0.94536249  0.07604894  0.54903442    -0.79500
C133        C  0.89982244  0.05302830  0.46334810     0.80500
N134        N  0.90654513  0.03530292  0.45601288    -0.77800
C135        C  0.90027099  0.02837799  0.43792393     0.82900
N136        N  0.88727396  0.03971602  0.42707538    -0.77800
C137        C  0.88054685  0.05759793  0.43416442     0.83000
N138        N  0.88682819  0.06407810  0.45236929    -0.79500
C139        C  0.95904836  0.92915692  0.40601029     0.80500
N140        N  0.94838868  0.91824938  0.39235236    -0.77800
C141        C  0.92963301  0.92395879  0.38668121     0.82900
N142        N  0.92169735  0.94092259  0.39456730    -0.77800
C143        C  0.93199777  0.95204258  0.40807339     0.83000
N144        N  0.95054469  0.94599559  0.41379810    -0.79500
N145        N  0.88218530  0.64940351  0.18947255    -0.27000
N146        N  0.89722816  0.64811476  0.17684063    -0.34900
C147        C  0.90799777  0.66503478  0.17809896     0.01300
C148        C  0.89926527  0.67744961  0.19223701     0.07300
C149        C  0.88296522  0.66697733  0.19914302    -0.05800
H150        H  0.92103327  0.66819729  0.16916949     0.08000
H151        H  0.87205278  0.67201407  0.20989855     0.09200
Cu152      Cu  0.90138032  0.62327986  0.15819859     0.44200
Cu153      Cu  0.86024949  0.62807348  0.19140006     0.42000
Cu154      Cu  0.86019825  0.58749317  0.15479686     0.43900
N155        N  0.90266957  0.59696944  0.14123286    -0.34400
N156        N  0.88803224  0.58378506  0.13977859    -0.28700
C157        C  0.89428173  0.56867943  0.12781616    -0.04800
C158        C  0.91370939  0.57255770  0.12145777     0.07400
C159        C  0.91835215  0.59064591  0.13034741     0.01200
H160        H  0.88539062  0.55576337  0.12403966     0.08900
H161        H  0.93227909  0.59864619  0.12907419     0.08000
N162        N  0.83526979  0.59553124  0.17290993    -0.35900
N163        N  0.83603431  0.60994705  0.18640667    -0.28100
C164        C  0.81833785  0.61164733  0.19565199    -0.03300
C165        C  0.80546850  0.59775168  0.18772332     0.05300
C166        C  0.81667265  0.58776148  0.17328598     0.03400
H167        H  0.81503117  0.62249477  0.20714254     0.08500
H168        H  0.81166337  0.57568227  0.16382989     0.07300
N169        N  0.90674179  0.77862264  0.24924370    -0.27000
N170        N  0.91972315  0.79266988  0.24453925    -0.34900
C171        C  0.91968817  0.80704635  0.25842795     0.01300
C172        C  0.90575788  0.80227464  0.27262195     0.07300
C173        C  0.89757813  0.78422181  0.26633016    -0.05800
H174        H  0.92894035  0.82024646  0.25795871     0.08000
H175        H  0.88612132  0.77570221  0.27379776     0.09200
Cu176      Cu  0.93752620  0.79257807  0.21995495     0.44200
Cu177      Cu  0.90370804  0.75242386  0.23180218     0.42000
Cu178      Cu  0.94052861  0.74947280  0.19039165     0.43900
N179        N  0.96110281  0.78719801  0.20172847    -0.34400
N180        N  0.96252926  0.77099222  0.19072520    -0.28700
C181        C  0.98126988  0.76945606  0.18398740    -0.04800
C182        C  0.99221528  0.78535972  0.19150331     0.07400
C183        C  0.97877563  0.79643783  0.20244300     0.01200
H184        H  0.98700854  0.75644449  0.17637155     0.08900
H185        H  0.98212075  0.80871914  0.21236072     0.08000
N186        N  0.92061994  0.72711753  0.19769410    -0.35900
N187        N  0.90735974  0.72776285  0.21233138    -0.28100
C188        C  0.89757015  0.71015837  0.21264271    -0.03300
C189        C  0.90517317  0.69799930  0.19764377     0.05300
C190        C  0.91971540  0.70929188  0.18856034     0.03400
H191        H  0.88596170  0.70638026  0.22316633     0.08500
H192        H  0.92911669  0.70486834  0.17621880     0.07300
N193        N  0.88129194  0.83375299  0.30901113    -0.27000
N194        N  0.89967177  0.84054949  0.31092445    -0.34900
C195        C  0.91157298  0.82954538  0.29899464     0.01300
C196        C  0.90006202  0.81503082  0.28960031     0.07300
C197        C  0.88098690  0.81820837  0.29635703    -0.05800
H198        H  0.92731555  0.83220980  0.29687571     0.08000
H199        H  0.86758656  0.81088537  0.29118929     0.09200
Cu200      Cu  0.90670397  0.86530790  0.32918231     0.44200
Cu201      Cu  0.85665389  0.84821620  0.31959469     0.42000
Cu202      Cu  0.86335414  0.89668350  0.34081130     0.43900
N203        N  0.90774201  0.88945737  0.34949394    -0.34400
N204        N  0.89209540  0.90080734  0.35362105    -0.28700
C205        C  0.89762592  0.91466827  0.36720674    -0.04800
C206        C  0.91762276  0.91200859  0.37207028     0.07400
C207        C  0.92346664  0.89580963  0.36048049     0.01200
H208        H  0.88771985  0.92583303  0.37332701     0.08900
H209        H  0.93810711  0.88909406  0.36010705     0.08000
N210        N  0.83695272  0.88778360  0.32562718    -0.35900
N211        N  0.83502770  0.86970924  0.31797827    -0.28100
C212        C  0.81770578  0.86825664  0.30799845    -0.03300
C213        C  0.80780446  0.88618275  0.30954151     0.05300
C214        C  0.82037250  0.89825122  0.32094699     0.03400
H215        H  0.81282568  0.85512851  0.29997781     0.08500
H216        H  0.81788529  0.91367769  0.32496541     0.07300
N217        N  0.61372893  0.66540225  0.32171457    -0.27000
N218        N  0.59693309  0.66259232  0.33161986    -0.34900
C219        C  0.58515273  0.67869865  0.32866092     0.01300
C220        C  0.59502796  0.69197019  0.31610606     0.07300
C221        C  0.61303266  0.68293883  0.31205609    -0.05800
H222        H  0.57032769  0.68040554  0.33472968     0.08000
H223        H  0.62477660  0.68859393  0.30257606     0.09200
Cu224      Cu  0.59127718  0.63597131  0.34760603     0.44200
Cu225      Cu  0.63669140  0.64505485  0.32031805     0.42000
Cu226      Cu  0.62707986  0.59531954  0.33772893     0.43900
N227        N  0.58981123  0.60739681  0.36097823    -0.34400
N228        N  0.60272300  0.59282612  0.35754256    -0.28700
C229        C  0.59756542  0.57679971  0.36866243    -0.04800
C230        C  0.58056431  0.58132773  0.37958937     0.07400
C231        C  0.57614112  0.60087277  0.37425460     0.01200
H232        H  0.60560660  0.56282303  0.36878216     0.08900
H233        H  0.56388735  0.60978023  0.37976023     0.08000
N234        N  0.65033957  0.60260072  0.31778427    -0.35900
N235        N  0.65429145  0.62116222  0.31247741    -0.28100
C236        C  0.66925867  0.62134778  0.29912163    -0.03300
C237        C  0.67500024  0.60193066  0.29548399     0.05300
C238        C  0.66259712  0.59040248  0.30748948     0.03400
H239        H  0.67439678  0.63452750  0.29138144     0.08500
H240        H  0.66203887  0.57429481  0.30808499     0.07300
N241        N  0.61509102  0.83092514  0.18096553    -0.27000
N242        N  0.59681285  0.83760150  0.17791705    -0.34900
C243        C  0.58433454  0.82752693  0.18997425     0.01300
C244        C  0.59526810  0.81374633  0.20088985     0.07300
C245        C  0.61469606  0.81634009  0.19473664    -0.05800
H246        H  0.56863073  0.83076923  0.19153620     0.08000
H247        H  0.62781412  0.80962372  0.20126807     0.09200
Cu248      Cu  0.59014921  0.86192531  0.15943191     0.44200
Cu249      Cu  0.64035702  0.84521121  0.17093621     0.42000
Cu250      Cu  0.63087269  0.89654232  0.15610651     0.43900
N251        N  0.58865656  0.88780120  0.14195302    -0.34400
N252        N  0.60353017  0.90069195  0.14067430    -0.28700
C253        C  0.59798736  0.91561955  0.12827107    -0.04800
C254        C  0.57874022  0.91197029  0.12137412     0.07400
C255        C  0.57339455  0.89415934  0.13045392     0.01200
H256        H  0.60730422  0.92820707  0.12445136     0.08900
H257        H  0.55940116  0.88635201  0.12878690     0.08000
N258        N  0.65628113  0.88702562  0.17246972    -0.35900
N259        N  0.66005990  0.86810632  0.17658578    -0.28100
C260        C  0.67615476  0.86683508  0.18853999    -0.03300
C261        C  0.68299584  0.88585240  0.19244157     0.05300
C262        C  0.66994688  0.89827079  0.18203705     0.03400
H263        H  0.68112235  0.85322777  0.19563492     0.08500
H264        H  0.66967389  0.91439690  0.18249165     0.07300
N265        N  0.58517606  0.73860818  0.28926982    -0.27000
N266        N  0.57138471  0.73946801  0.30338518    -0.34900
C267        C  0.57257608  0.72301481  0.31486822     0.01300
C268        C  0.58797470  0.71124275  0.30791477     0.07300
C269        C  0.59565751  0.72161332  0.29170639    -0.05800
H270        H  0.56307762  0.72000235  0.32754613     0.08000
H271        H  0.60785621  0.71701314  0.28222544     0.09200
Cu272      Cu  0.55151411  0.76295842  0.30714384     0.44200
Cu273      Cu  0.58894569  0.76036415  0.26677867     0.42000
Cu274      Cu  0.55740472  0.80333571  0.27330967     0.43900
N275        N  0.53276973  0.78761225  0.30664188    -0.34400
N276        N  0.53531942  0.80261545  0.29420692    -0.28700
C277        C  0.51959608  0.81491067  0.29519136    -0.04800
C278        C  0.50630449  0.80728877  0.30891671     0.07400
C279        C  0.51526392  0.79002231  0.31602768     0.01200
H280        H  0.51716932  0.82732079  0.28518594     0.08900
H281        H  0.50869802  0.77898130  0.32575942     0.08000
N282        N  0.57465209  0.79901112  0.24856482    -0.35900
N283        N  0.58681876  0.78375679  0.24580193    -0.28100
C284        C  0.59606724  0.78629608  0.22806166    -0.03300
C285        C  0.58883959  0.80367767  0.21932226     0.05300
C286        C  0.57534585  0.81123622  0.23277998     0.03400
H287        H  0.60701833  0.77620140  0.22188407     0.08500
H288        H  0.56693192  0.82493894  0.23145812     0.07300
N289        N  0.71673894  0.89238712  0.23556693    -0.27000
N290        N  0.70347750  0.90679725  0.23778230    -0.34900
C291        C  0.69076838  0.90703282  0.22242416     0.01300
C292        C  0.69556684  0.89180414  0.20963791     0.07300
C293        C  0.71207344  0.88252144  0.21846242    -0.05800
H294        H  0.67827541  0.91715522  0.22116596     0.08000
H295        H  0.72002182  0.86966708  0.21282083     0.09200
Cu296      Cu  0.70105644  0.92546174  0.26153864     0.44200
Cu297      Cu  0.74010582  0.88868151  0.25714012     0.42000
Cu298      Cu  0.73664273  0.92664387  0.29839235     0.43900
N299        N  0.70159626  0.94772159  0.28206526    -0.34400
N300        N  0.71525363  0.94853874  0.29609021    -0.28700
C301        C  0.71449888  0.96654599  0.30480517    -0.04800
C302        C  0.69971618  0.97766096  0.29548537     0.07400
C303        C  0.69168685  0.96502570  0.28132462     0.01200
H304        H  0.72542503  0.97187344  0.31539521     0.08900
H305        H  0.68120634  0.96886658  0.26969513     0.08000
N306        N  0.75967163  0.90661205  0.29483453    -0.35900
N307        N  0.76136811  0.89275619  0.28078316    -0.28100
C308        C  0.77875650  0.88298223  0.28398865    -0.03300
C309        C  0.78831276  0.89138650  0.30049252     0.05300
C310        C  0.77571968  0.90626328  0.30680729     0.03400
H311        H  0.78431020  0.87098244  0.27473833     0.08500
H312        H  0.77799665  0.91620837  0.31932198     0.07300
N313        N  0.75589367  0.59341194  0.21087929    -0.27000
N314        N  0.75440133  0.58099768  0.19556509    -0.34900
C315        C  0.77134478  0.58118423  0.18490277     0.01300
C316        C  0.78443785  0.59434485  0.19364912     0.07300
C317        C  0.77414257  0.60195194  0.21007912    -0.05800
H318        H  0.77418715  0.57171505  0.17213891     0.08000
H319        H  0.77980919  0.61235078  0.22104198     0.09200
Cu320      Cu  0.73129975  0.56153195  0.19058168     0.44200
Cu321      Cu  0.73322603  0.59651984  0.23301920     0.42000
Cu322      Cu  0.69533940  0.55781668  0.22884349     0.43900
N323        N  0.71585831  0.53574985  0.19628694    -0.34400
N324        N  0.70228548  0.53452894  0.21040475    -0.28700
C325        C  0.69805219  0.51532093  0.21382262    -0.04800
C326        C  0.70992921  0.50376119  0.20154920     0.07400
C327        C  0.72085284  0.51727735  0.19041846     0.01200
H328        H  0.68923524  0.51021792  0.22631492     0.08900
H329        H  0.73333396  0.51397001  0.18077058     0.08000
N330        N  0.69592924  0.57835144  0.25148322    -0.35900
N331        N  0.70899125  0.59302018  0.25332171    -0.28100
C332        C  0.70389947  0.60378045  0.26967288    -0.03300
C333        C  0.68728293  0.59496999  0.27853839     0.05300
C334        C  0.68280003  0.57895062  0.26654687     0.03400
H335        H  0.71173559  0.61689332  0.27483862     0.08500
H336        H  0.67046180  0.56872139  0.26827517     0.07300
N337        N  0.81391577  0.15429492  0.38162381    -0.27000
N338        N  0.81706068  0.14896856  0.40036444    -0.34900
C339        C  0.80714972  0.16181200  0.41226558     0.01300
C340        C  0.79764020  0.17599209  0.40046190     0.07300
C341        C  0.80232863  0.17066747  0.38114516    -0.05800
H342        H  0.80593926  0.16027488  0.42828241     0.08000
H343        H  0.79603995  0.17692452  0.36766985     0.09200
Cu344      Cu  0.83273977  0.12292470  0.40861489     0.44200
Cu345      Cu  0.82059134  0.13670180  0.35722537     0.42000
Cu346      Cu  0.83451837  0.08610191  0.36931065     0.43900
N347        N  0.84813535  0.09558684  0.41136408    -0.34400
N348        N  0.84870942  0.08214348  0.39689553    -0.28700
C349        C  0.85995100  0.06654314  0.40285294    -0.04800
C350        C  0.86689385  0.07021641  0.42200451     0.07400
C351        C  0.85905533  0.08880596  0.42688434     0.01200
H352        H  0.86308554  0.05356351  0.39377670     0.08900
H353        H  0.86134918  0.09691786  0.44065300     0.08000
N354        N  0.81956461  0.09429406  0.34308671    -0.35900
N355        N  0.81526323  0.11293136  0.33833248    -0.28100
C356        C  0.80419324  0.11315333  0.32155385    -0.03300
C357        C  0.80123943  0.09369713  0.31541580     0.05300
C358        C  0.81116154  0.08217016  0.32948079     0.03400
H359        H  0.79725029  0.12634872  0.31540596     0.08500
H360        H  0.81123510  0.06606462  0.33041018     0.07300
N361        N  0.69646905  0.10218032  0.15126845    -0.27000
N362        N  0.68278096  0.08801283  0.15138501    -0.34900
C363        C  0.68370245  0.07863529  0.16921627     0.01300
C364        C  0.69868865  0.08740286  0.18066341     0.07300
C365        C  0.70638601  0.10223548  0.16869745    -0.05800
H366        H  0.67409588  0.06646339  0.17361134     0.08000
H367        H  0.71804888  0.11269149  0.17252749     0.09200
Cu368      Cu  0.66356677  0.08318613  0.12669844     0.44200
Cu369      Cu  0.70006482  0.12216301  0.12833395     0.42000
Cu370      Cu  0.66369202  0.12290532  0.08856945     0.43900
N371        N  0.64691840  0.08197462  0.09977634    -0.34400
N372        N  0.64694860  0.09616594  0.08600317    -0.28700
C373        C  0.63493805  0.09044748  0.07077543    -0.04800
C374        C  0.62690014  0.07178902  0.07502735     0.07400
C375        C  0.63489801  0.06701266  0.09358048     0.01200
H376        H  0.63226250  0.09921851  0.05750847     0.08900
H377        H  0.63221104  0.05350458  0.10195910     0.08000
N378        N  0.68268267  0.14724022  0.09553713    -0.35900
N379        N  0.69626522  0.14624206  0.10979602    -0.28100
C380        C  0.70582520  0.16378794  0.11135849    -0.03300
C381        C  0.69796983  0.17676804  0.09751125     0.05300
C382        C  0.68330241  0.16578985  0.08767265     0.03400
H383        H  0.71722270  0.16702988  0.12230405     0.08500
H384        H  0.67361223  0.17101631  0.07589307     0.07300
N385        N  0.70113965  0.38600891  0.35094621    -0.27000
N386        N  0.68937278  0.40181023  0.35054846    -0.34900
C387        C  0.69467520  0.41309598  0.33470099     0.01300
C388        C  0.71058897  0.40387537  0.32499242     0.07300
C389        C  0.71420354  0.38682115  0.33581152    -0.05800
H390        H  0.68738773  0.42682725  0.33041013     0.08000
H391        H  0.72503301  0.37534043  0.33248426     0.09200
Cu392      Cu  0.66663700  0.40596242  0.37207139     0.44200
Cu393      Cu  0.69812023  0.36275318  0.37054027     0.42000
Cu394      Cu  0.65841082  0.36249781  0.40583089     0.43900
N395        N  0.64678536  0.40593482  0.39666312    -0.34400
N396        N  0.64395787  0.39055313  0.40878534    -0.28700
C397        C  0.63083124  0.39600058  0.42312362    -0.04800
C398        C  0.62500951  0.41567156  0.41999865     0.07400
C399        C  0.63545240  0.42137085  0.40302688     0.01200
H400        H  0.62594078  0.38636113  0.43508361     0.08900
H401        H  0.63503538  0.43585653  0.39595259     0.08000
N402        N  0.67647755  0.33715539  0.39996245    -0.35900
N403        N  0.69129820  0.33791439  0.38701769    -0.28100
C404        C  0.70057213  0.32016526  0.38616495    -0.03300
C405        C  0.69126128  0.30728696  0.39918782     0.05300
C406        C  0.67597008  0.31853716  0.40770801     0.03400
H407        H  0.71315330  0.31688888  0.37662724     0.08500
H408        H  0.66539894  0.31357654  0.41881667     0.07300
N409        N  0.81826128  0.33122710  0.12927047    -0.27000
N410        N  0.82186025  0.33623811  0.11051558    -0.34900
C411        C  0.81063872  0.32459253  0.09860494     0.01300
C412        C  0.79964190  0.31153570  0.11033511     0.07300
C413        C  0.80490498  0.31619219  0.12972417    -0.05800
H414        H  0.80991242  0.32604743  0.08255222     0.08000
H415        H  0.79840589  0.31016787  0.14319903     0.09200
Cu416      Cu  0.84041162  0.36009459  0.10167321     0.44200
Cu417      Cu  0.82854844  0.34742128  0.15349891     0.42000
Cu418      Cu  0.85019331  0.39584977  0.14013726     0.43900
N419        N  0.85742683  0.38609743  0.09658815    -0.34400
N420        N  0.86082529  0.39939425  0.11078486    -0.28700
C421        C  0.87169179  0.41451965  0.10309037    -0.04800
C422        C  0.87549351  0.41063243  0.08306570     0.07400
C423        C  0.86618970  0.39240803  0.07954824     0.01200
H424        H  0.87655621  0.42741373  0.11148248     0.08900
H425        H  0.86571173  0.38439694  0.06554249     0.08000
N426        N  0.83690198  0.38920267  0.16781669    -0.35900
N427        N  0.82977208  0.37150350  0.17281707    -0.28100
C428        C  0.82044913  0.37286357  0.19057873    -0.03300
C429        C  0.82154121  0.39238658  0.19713395     0.05300
C430        C  0.83211079  0.40226790  0.18230322     0.03400
H431        H  0.81178048  0.36098852  0.19719560     0.08500
H432        H  0.83485920  0.41813692  0.18143421     0.07300
N433        N  0.78436754  0.40687576  0.23461954    -0.27000
N434        N  0.78474927  0.42242946  0.22249520    -0.34900
C435        C  0.79905335  0.42006962  0.20879213     0.01300
C436        C  0.80819429  0.40197600  0.21184161     0.07300
C437        C  0.79844666  0.39381965  0.22832161    -0.05800
H438        H  0.80144769  0.43013116  0.19640787     0.08000
H439        H  0.80102382  0.37929102  0.23482771     0.09200
Cu440      Cu  0.76386004  0.44466036  0.22112001     0.44200
Cu441      Cu  0.76337333  0.40483281  0.25825102     0.42000
Cu442      Cu  0.72143279  0.43892614  0.25068809     0.43900
N443        N  0.73841094  0.46087747  0.21621920    -0.34400
N444        N  0.72229045  0.45838116  0.22711356    -0.28700
C445        C  0.70860163  0.47191321  0.22176691    -0.04800
C446        C  0.71654915  0.48357668  0.20672158     0.07400
C447        C  0.73547512  0.47602970  0.20349595     0.01200
H448        H  0.69458231  0.47410130  0.22940070     0.08900
H449        H  0.74683077  0.48202765  0.19376413     0.08000
N450        N  0.72536861  0.42238337  0.27614228    -0.35900
N451        N  0.74017986  0.40973162  0.27928077    -0.28100
C452        C  0.73745221  0.40142812  0.29744209    -0.03300
C453        C  0.72029430  0.40944793  0.30598244     0.05300
C454        C  0.71315855  0.42268176  0.29202158     0.03400
H455        H  0.74718251  0.39034811  0.30395863     0.08500
H456        H  0.69979455  0.43163701  0.29309204     0.07300
N457        N  0.75868441  0.27626749  0.10023583    -0.27000
N458        N  0.75690501  0.28940974  0.08563524    -0.34900
C459        C  0.77121582  0.30323952  0.08706359     0.01300
C460        C  0.78269175  0.29914665  0.10353795     0.07300
C461        C  0.77428528  0.28197248  0.11177704    -0.05800
H462        H  0.77288226  0.31567706  0.07692767     0.08000
H463        H  0.77938825  0.27406198  0.12487122     0.09200
Cu464      Cu  0.73534837  0.28935515  0.06404894     0.44200
Cu465      Cu  0.73948039  0.25103041  0.10194951     0.42000
Cu466      Cu  0.69754251  0.25335867  0.06593393     0.43900
N467        N  0.71489967  0.28611334  0.04166830    -0.34400
N468        N  0.70054724  0.27276161  0.04239274    -0.28700
C469        C  0.69186564  0.27155323  0.02440730    -0.04800
C470        C  0.70141217  0.28473396  0.01169328     0.07400
C471        C  0.71578433  0.29389450  0.02327717     0.01200
H472        H  0.68106977  0.26029257  0.02035338     0.08900
H473        H  0.72751726  0.30369582  0.01820007     0.08000
N474        N  0.70391693  0.22896671  0.08344391    -0.35900
N475        N  0.71890157  0.22749440  0.09623063    -0.28100
C476        C  0.71891667  0.20869952  0.10355387    -0.03300
C477        C  0.70336287  0.19803535  0.09481128     0.05300
C478        C  0.69427198  0.21144586  0.08221364     0.03400
H479        H  0.72973954  0.20303906  0.11407696     0.08500
H480        H  0.68180175  0.20858199  0.07239595     0.07300
N481        N  0.76177920  0.08389157  0.27859340    -0.27000
N482        N  0.75932646  0.06949750  0.29181677    -0.34900
C483        C  0.77347520  0.07044758  0.30581942     0.01300
C484        C  0.78553051  0.08647437  0.30179865     0.07300
C485        C  0.77766247  0.09492388  0.28446412    -0.05800
H486        H  0.77431024  0.06062702  0.31859665     0.08000
H487        H  0.78308814  0.10801315  0.27677569     0.09200
Cu488      Cu  0.73638877  0.04972120  0.29231663     0.44200
Cu489      Cu  0.74241091  0.08620129  0.25359318     0.42000
Cu490      Cu  0.70081239  0.04891262  0.25440625     0.43900
N491        N  0.71487151  0.02845399  0.29113379    -0.34400
N492        N  0.70147938  0.02772883  0.27681601    -0.28700
C493        C  0.69175193  0.01027494  0.27804369    -0.04800
C494        C  0.69964855  0.99949094  0.29388025     0.07400
C495        C  0.71410929  0.01170567  0.30194973     0.01200
H496        H  0.68127795  0.00501271  0.26697144     0.08900
H497        H  0.72484109  0.00786414  0.31334703     0.08000
N498        N  0.70666879  0.06826616  0.23106393    -0.35900
N499        N  0.72129347  0.08154321  0.23034395    -0.28100
C500        C  0.72054169  0.09061785  0.21235282    -0.03300
C501        C  0.70485434  0.08259215  0.20136532     0.05300
C502        C  0.69647757  0.06852839  0.21377937     0.03400
H503        H  0.73086747  0.10198896  0.20747306     0.08500
H504        H  0.68399826  0.05889091  0.21041729     0.07300
N505        N  0.75526500  0.21019910  0.40615757    -0.27000
N506        N  0.75077230  0.19546925  0.41845522    -0.34900
C507        C  0.76569650  0.18223596  0.41914681     0.01300
C508        C  0.78043729  0.18838946  0.40635611     0.07300
C509        C  0.77331823  0.20612026  0.39809154    -0.05800
H510        H  0.76534570  0.16853075  0.42765273     0.08000
H511        H  0.78070499  0.21527285  0.38707037     0.09200
Cu512      Cu  0.72436031  0.19221091  0.43311038     0.44200
Cu513      Cu  0.73560157  0.23475891  0.40210131     0.42000
Cu514      Cu  0.68935354  0.23110130  0.43264053     0.43900
N515        N  0.70098145  0.19306741  0.45241944    -0.34400
N516        N  0.68800239  0.20776306  0.45275047    -0.28700
C517        C  0.67767358  0.20678528  0.46986589    -0.04800
C518        C  0.68489255  0.19087794  0.48105430     0.07400
C519        C  0.69932841  0.18226995  0.46912157     0.01200
H520        H  0.66771406  0.21840826  0.47491984     0.08900
H521        H  0.70994063  0.17095002  0.47346354     0.08000
N522        N  0.69723402  0.25573225  0.41578558    -0.35900
N523        N  0.71353617  0.25743412  0.40475568    -0.28100
C524        C  0.71370105  0.27594335  0.39675723    -0.03300
C525        C  0.69686899  0.28626004  0.40321203     0.05300
C526        C  0.68687836  0.27290758  0.41520877     0.03400
H527        H  0.72545715  0.28166856  0.38733877     0.08500
H528        H  0.67317600  0.27555699  0.42327464     0.07300
N529        N  0.61682858  0.16369980  0.82752020    -0.27000
N530        N  0.59858571  0.15700747  0.83080292    -0.34900
C531        C  0.58709036  0.16253517  0.81521759     0.01300
C532        C  0.59866058  0.17343276  0.80186084     0.07300
C533        C  0.61737766  0.17386358  0.81023605    -0.05800
H534        H  0.57137426  0.15927349  0.81388241     0.08000
H535        H  0.63048472  0.18109755  0.80427412     0.09200
Cu536      Cu  0.59043007  0.14143232  0.85712822     0.44200
Cu537      Cu  0.64020498  0.16038831  0.84694070     0.42000
Cu538      Cu  0.62805174  0.14405726  0.89647409     0.43900
N539        N  0.58716666  0.12727808  0.88525740    -0.34400
N540        N  0.60104457  0.12801168  0.89930972    -0.28700
C541        C  0.59469215  0.11749329  0.91528017    -0.04800
C542        C  0.57585035  0.10979363  0.91137509     0.07400
C543        C  0.57161892  0.11637329  0.89213086     0.01200
H544        H  0.60309449  0.11576799  0.92894196     0.08900
H545        H  0.55817585  0.11341934  0.88373099     0.08000
N546        N  0.65258848  0.16267306  0.88965842    -0.35900
N547        N  0.65727359  0.16770200  0.87118909    -0.28100
C548        C  0.67253020  0.18071104  0.87131416    -0.03300
C549        C  0.67779656  0.18435029  0.89085581     0.05300
C550        C  0.66482414  0.17266564  0.90211954     0.03400
H551        H  0.67825674  0.18816525  0.85820962     0.08500
H552        H  0.66377697  0.17219215  0.91821196     0.07300
N553        N  0.83500639  0.30081351  0.87710390    -0.27000
N554        N  0.83637092  0.31045289  0.89428485    -0.34900
C555        C  0.81948349  0.30696323  0.90471644     0.01300
C556        C  0.80707643  0.29450319  0.89357111     0.07300
C557        C  0.81753143  0.29096509  0.87618227    -0.05800
H558        H  0.81643749  0.31299499  0.91937219     0.08000
H559        H  0.81271634  0.28203599  0.86362440     0.09200
Cu560      Cu  0.86173725  0.32796304  0.90207188     0.44200
Cu561      Cu  0.85675103  0.30171047  0.85532533     0.42000
Cu562      Cu  0.90018937  0.33270453  0.86294450     0.43900
N563        N  0.88860737  0.34462313  0.90544987    -0.34400
N564        N  0.90230779  0.34620650  0.89128796    -0.28700
C565        C  0.91740198  0.35771234  0.89805821    -0.04800
C566        C  0.91322161  0.36386318  0.91740091     0.07400
C567        C  0.89478999  0.35522429  0.92152788     0.01200
H568        H  0.93049827  0.36144544  0.88944301     0.08900
H569        H  0.88646539  0.35659558  0.93527412     0.08000
N570        N  0.89481968  0.31645669  0.83655687    -0.35900
N571        N  0.87902397  0.30488431  0.83432170    -0.28100
C572        C  0.87966494  0.29601653  0.81634540    -0.03300
C573        C  0.89657700  0.30232237  0.80652455     0.05300
C574        C  0.90586462  0.31535047  0.81974152     0.03400
H575        H  0.86842995  0.28589303  0.81074055     0.08500
H576        H  0.91968925  0.32327840  0.81736990     0.07300
N577        N  0.75873294  0.26908854  0.90051629    -0.27000
N578        N  0.75871300  0.28214951  0.91537116    -0.34900
C579        C  0.77553564  0.29301798  0.91490575     0.01300
C580        C  0.78696242  0.28687411  0.89896357     0.07300
C581        C  0.77581124  0.27169557  0.89005436    -0.05800
H582        H  0.77927884  0.30445795  0.92566333     0.08000
H583        H  0.78010223  0.26283787  0.87726367     0.09200
Cu584      Cu  0.73696971  0.28478700  0.93702884     0.44200
Cu585      Cu  0.73573569  0.24735344  0.89648996     0.42000
Cu586      Cu  0.70473361  0.24392636  0.94070582     0.43900
N587        N  0.71740145  0.28140704  0.96052922    -0.34400
N588        N  0.70542129  0.26591182  0.96176566    -0.28700
C589        C  0.69599341  0.26617594  0.97937121    -0.04800
C590        C  0.70253402  0.28260811  0.98995094     0.07400
C591        C  0.71606912  0.29200741  0.97748985     0.01200
H592        H  0.68640309  0.25435480  0.98465291     0.08900
H593        H  0.72541741  0.30464166  0.98107328     0.08000
N594        N  0.70262864  0.22447173  0.91739283    -0.35900
N595        N  0.71274066  0.22566261  0.90050228    -0.28100
C596        C  0.70576614  0.21120716  0.88818599    -0.03300
C597        C  0.69100662  0.20044584  0.89819696     0.05300
C598        C  0.68956705  0.20938571  0.91658548     0.03400
H599        H  0.71102424  0.20864489  0.87315160     0.08500
H600        H  0.67918644  0.20573211  0.92836785     0.07300
N601        N  0.61164741  0.30972200  0.66012265    -0.27000
N602        N  0.59294201  0.31357072  0.65521421    -0.34900
C603        C  0.58105627  0.30267765  0.66725458     0.01300
C604        C  0.59286874  0.29176816  0.68041809     0.07300
C605        C  0.61213551  0.29672929  0.67540075    -0.05800
H606        H  0.56503409  0.30184553  0.66581260     0.08000
H607        H  0.62556794  0.28977970  0.68097869     0.09200
Cu608      Cu  0.58472937  0.33167026  0.63058252     0.44200
Cu609      Cu  0.63602283  0.31714747  0.64299297     0.42000
Cu610      Cu  0.62352997  0.33360459  0.59356409     0.43900
N611        N  0.58233843  0.34862817  0.60397350    -0.34400
N612        N  0.59679556  0.34920571  0.59056186    -0.28700
C613        C  0.59125117  0.36103042  0.57527006    -0.04800
C614        C  0.57233308  0.36836916  0.57901335     0.07400
C615        C  0.56716333  0.36017976  0.59740844     0.01200
H616        H  0.60034551  0.36402290  0.56229029     0.08900
H617        H  0.55334349  0.36244835  0.60539039     0.08000
N618        N  0.64838999  0.31608396  0.60012667    -0.35900
N619        N  0.65343927  0.31083793  0.61843522    -0.28100
C620        C  0.66899349  0.29817348  0.61766878    -0.03300
C621        C  0.67395456  0.29517274  0.59788784     0.05300
C622        C  0.66052841  0.30672330  0.58719981     0.03400
H623        H  0.67496974  0.29029827  0.63041700     0.08500
H624        H  0.65895748  0.30735497  0.57115108     0.07300
N625        N  0.87058860  0.18592262  0.65241094    -0.27000
N626        N  0.88878379  0.17958151  0.64840592    -0.34900
C627        C  0.90163184  0.18920079  0.66048817     0.01300
C628        C  0.89088978  0.20177461  0.67294760     0.07300
C629        C  0.87127073  0.19930866  0.66735525    -0.05800
H630        H  0.91765405  0.18768303  0.65981542     0.08000
H631        H  0.85861846  0.20781661  0.67259942     0.09200
Cu632      Cu  0.89484818  0.15912689  0.62556042     0.44200
Cu633      Cu  0.84627425  0.17906890  0.63493856     0.42000
Cu634      Cu  0.85378615  0.14904977  0.59050752     0.43900
N635        N  0.89679267  0.13857798  0.60207115    -0.34400
N636        N  0.88218149  0.13488858  0.58928431    -0.28700
C637        C  0.88871518  0.12116981  0.57598606    -0.04800
C638        C  0.90826954  0.11592208  0.58061502     0.07400
C639        C  0.91276964  0.12729158  0.59728975     0.01200
H640        H  0.87990427  0.11543081  0.56374933     0.08900
H641        H  0.92677366  0.12752831  0.60526546     0.08000
N642        N  0.82763005  0.16617204  0.59601172    -0.35900
N643        N  0.82547432  0.17701948  0.61237400    -0.28100
C644        C  0.80809713  0.18695630  0.61169765    -0.03300
C645        C  0.79843682  0.18216388  0.59417910     0.05300
C646        C  0.81122045  0.16885825  0.58455652     0.03400
H647        H  0.80292852  0.19705962  0.62317443     0.08500
H648        H  0.80891198  0.16198409  0.57013755     0.07300
N649        N  0.75142004  0.20871908  0.58493997    -0.27000
N650        N  0.75039253  0.19444142  0.57128476    -0.34900
C651        C  0.76688823  0.18300655  0.57232533     0.01300
C652        C  0.77892034  0.19015940  0.58745476     0.07300
C653        C  0.76860967  0.20644509  0.59514493    -0.05800
H654        H  0.76982709  0.17030703  0.56280710     0.08000
H655        H  0.77340403  0.21611443  0.60714243     0.09200
Cu656      Cu  0.72691179  0.19065435  0.55137543     0.44200
Cu657      Cu  0.72969507  0.23135222  0.58882338     0.42000
Cu658      Cu  0.69163844  0.23002728  0.55124542     0.43900
N659        N  0.70375955  0.19254267  0.53089016    -0.34400
N660        N  0.69069066  0.20718645  0.53120731    -0.28700
C661        C  0.67943995  0.20649747  0.51472667    -0.04800
C662        C  0.68595519  0.19084383  0.50299068     0.07400
C663        C  0.70119795  0.18207658  0.51398750     0.01200
H664        H  0.66901100  0.21805386  0.51056322     0.08900
H665        H  0.71122721  0.17046283  0.50905550     0.08000
N666        N  0.69383542  0.25244560  0.57167285    -0.35900
N667        N  0.70685750  0.25300951  0.58644476    -0.28100
C668        C  0.70234039  0.26886871  0.59810523    -0.03300
C669        C  0.68607909  0.27873269  0.58976550     0.05300
C670        C  0.68123760  0.26785775  0.57306039     0.03400
H671        H  0.71016928  0.27287068  0.61163031     0.08500
H672        H  0.66875090  0.27031094  0.56314836     0.07300
N673        N  0.90494917  0.28091916  0.75691275    -0.27000
N674        N  0.91757802  0.29608284  0.75665199    -0.34900
C675        C  0.91676648  0.30578711  0.77422975     0.01300
C676        C  0.90282269  0.29650690  0.78617350     0.07300
C677        C  0.89560281  0.28081661  0.77471863    -0.05800
H678        H  0.92562190  0.31874592  0.77796356     0.08000
H679        H  0.88447853  0.27000565  0.77908452     0.09200
Cu680      Cu  0.93586464  0.30302138  0.73279961     0.44200
Cu681      Cu  0.90129654  0.26068695  0.73308007     0.42000
Cu682      Cu  0.93374243  0.26997879  0.69088619     0.43900
N683        N  0.95700530  0.30247305  0.71040568    -0.34400
N684        N  0.95620146  0.29023158  0.69502601    -0.28700
C685        C  0.97377639  0.29037183  0.68551163    -0.04800
C686        C  0.98644970  0.30317971  0.69553712     0.07400
C687        C  0.97513060  0.31083947  0.71106299     0.01200
H688        H  0.97771794  0.28006580  0.67373708     0.08900
H689        H  0.98038180  0.31981792  0.72339286     0.08000
N690        N  0.91498520  0.24590041  0.69263318    -0.35900
N691        N  0.90258688  0.24235017  0.70754354    -0.28100
C692        C  0.89214890  0.22568434  0.70315324    -0.03300
C693        C  0.89881277  0.21836121  0.68493462     0.05300
C694        C  0.91323166  0.23156092  0.67877914     0.03400
H695        H  0.88070578  0.21930099  0.71253131     0.08500
H696        H  0.92148929  0.23112767  0.66492490     0.07300
N697        N  0.58957350  0.20204310  0.75590684    -0.27000
N698        N  0.57564171  0.18807268  0.75498243    -0.34900
C699        C  0.57684377  0.17616201  0.77102408     0.01300
C700        C  0.59241856  0.18247340  0.78273207     0.07300
C701        C  0.60033017  0.19887852  0.77270655    -0.05800
H702        H  0.56703741  0.16369040  0.77388629     0.08000
H703        H  0.61261709  0.20811049  0.77756742     0.09200
Cu704      Cu  0.55461646  0.18480355  0.73288585     0.44200
Cu705      Cu  0.59209867  0.22543718  0.73449223     0.42000
Cu706      Cu  0.55463020  0.22071346  0.69541304     0.43900
N707        N  0.53177920  0.18717709  0.71258622    -0.34400
N708        N  0.53207542  0.20058560  0.69827814    -0.28700
C709        C  0.51412222  0.20151283  0.68961997    -0.04800
C710        C  0.50167404  0.18818568  0.69919011     0.07400
C711        C  0.51353165  0.17910660  0.71351681     0.01200
H712        H  0.50985060  0.21288259  0.67902114     0.08900
H713        H  0.50869486  0.16923965  0.72530938     0.08000
N714        N  0.57276817  0.24497805  0.69837860    -0.35900
N715        N  0.58704507  0.24715658  0.71181042    -0.28100
C716        C  0.59629841  0.26471750  0.70805148    -0.03300
C717        C  0.58688368  0.27393338  0.69191914     0.05300
C718        C  0.57210632  0.26091067  0.68634102     0.03400
H719        H  0.60888496  0.27038953  0.71637317     0.08500
H720        H  0.56200465  0.26248559  0.67386049     0.07300
N721        N  0.16105169  0.36720584  0.82377538    -0.27000
N722        N  0.15582874  0.38587713  0.82745085    -0.34900
C723        C  0.16793731  0.39794639  0.81687940     0.01300
C724        C  0.18162060  0.38632622  0.80649803     0.07300
C725        C  0.17666883  0.36694360  0.81122245    -0.05800
H726        H  0.16617186  0.41394719  0.81583610     0.08000
H727        H  0.18249033  0.35359475  0.80426430     0.09200
Cu728      Cu  0.13069177  0.39382957  0.84460400     0.44200
Cu729      Cu  0.14376445  0.34270161  0.83050176     0.42000
Cu730      Cu  0.09345396  0.35533458  0.84504966     0.43900
N731        N  0.10365128  0.39657538  0.86041816    -0.34400
N732        N  0.09004156  0.38230299  0.86054183    -0.28700
C733        C  0.07438307  0.38830698  0.87165424    -0.04800
C734        C  0.07817131  0.40730875  0.87896100     0.07400
C735        C  0.09692763  0.41203125  0.87151241     0.01200
H736        H  0.06111156  0.37951671  0.87413748     0.08900
H737        H  0.10503682  0.42576409  0.87390881     0.08000
N738        N  0.10081520  0.33102891  0.82678603    -0.35900
N739        N  0.11930993  0.32595959  0.82233042    -0.28100
C740        C  0.11911305  0.31128090  0.80860723    -0.03300
C741        C  0.09954176  0.30693376  0.80398904     0.05300
C742        C  0.08836130  0.31974930  0.81581334     0.03400
H743        H  0.13221054  0.30576262  0.80099643     0.08500
H744        H  0.07237816  0.32172349  0.81539287     0.07300
N745        N  0.15401420  0.11592482  0.68746728    -0.27000
N746        N  0.14902876  0.09751686  0.68251724    -0.34900
C747        C  0.16185424  0.08496410  0.69156306     0.01300
C748        C  0.17562269  0.09610161  0.70242706     0.07300
C749        C  0.17011755  0.11566648  0.69939794    -0.05800
H750        H  0.16063049  0.06888380  0.69118003     0.08000
H751        H  0.17619041  0.12866226  0.70679051     0.09200
Cu752      Cu  0.12351948  0.09097734  0.66524269     0.44200
Cu753      Cu  0.13657036  0.14023631  0.68128907     0.42000
Cu754      Cu  0.08851509  0.13264893  0.65782267     0.43900
N755        N  0.09719302  0.08895307  0.64804038    -0.34400
N756        N  0.08441365  0.10382157  0.64554767    -0.28700
C757        C  0.06938095  0.09746340  0.63367306    -0.04800
C758        C  0.07283987  0.07773246  0.62822498     0.07400
C759        C  0.09064349  0.07294435  0.63766940     0.01200
H760        H  0.05701309  0.10666978  0.62897547     0.08900
H761        H  0.09836803  0.05880475  0.63693691     0.08000
N762        N  0.09743749  0.15971444  0.67141971    -0.35900
N763        N  0.11502405  0.16190843  0.68003911    -0.28100
C764        C  0.11632633  0.18010303  0.68832701    -0.03300
C765        C  0.09885731  0.19019819  0.68461798     0.05300
C766        C  0.08717074  0.17689560  0.67378335     0.03400
H767        H  0.12907797  0.18550894  0.69658812     0.08500
H768        H  0.07213902  0.17934147  0.66853137     0.07300
N769        N  0.37009442  0.15332644  0.81985353    -0.27000
N770        N  0.38837935  0.14925798  0.82589133    -0.34900
C771        C  0.40067828  0.16305508  0.81797637     0.01300
C772        C  0.38947327  0.17650951  0.80676723     0.07300
C773        C  0.37015219  0.16977668  0.80837349    -0.05800
H774        H  0.41671683  0.16280682  0.81944273     0.08000
H775        H  0.35731882  0.17534702  0.80036508     0.09200
Cu776      Cu  0.39518549  0.12374809  0.84325873     0.44200
Cu777      Cu  0.34648720  0.13443557  0.82414507     0.42000
Cu778      Cu  0.35411399  0.08742548  0.84918644     0.43900
N779        N  0.39720861  0.09744652  0.86068582    -0.34400
N780        N  0.38250637  0.08440117  0.86276281    -0.28700
C781        C  0.38873852  0.06952309  0.87488322    -0.04800
C782        C  0.40823025  0.07325627  0.88087657     0.07400
C783        C  0.41302057  0.09112937  0.87151171     0.01200
H784        H  0.37966684  0.05690401  0.87917597     0.08900
H785        H  0.42703277  0.09900971  0.87254362     0.08000
N786        N  0.32768618  0.09486849  0.83354012    -0.35900
N787        N  0.32556549  0.11213865  0.82426785    -0.28100
C788        C  0.30795291  0.11267715  0.81478539    -0.03300
C789        C  0.29810965  0.09502545  0.81834733     0.05300
C790        C  0.31098704  0.08403076  0.83038752     0.03400
H791        H  0.30270187  0.12511154  0.80595507     0.08500
H792        H  0.30855898  0.06912408  0.83603102     0.07300
N793        N  0.34331823  0.38129696  0.70022905    -0.27000
N794        N  0.34188239  0.39480756  0.68596338    -0.34900
C795        C  0.32367666  0.40323211  0.68705622     0.01300
C796        C  0.31335209  0.39459900  0.70282373     0.07300
C797        C  0.32633538  0.38082191  0.71082551    -0.05800
H798        H  0.31819927  0.41447477  0.67687633     0.08000
H799        H  0.32332840  0.37046089  0.72281844     0.09200
Cu800      Cu  0.36491999  0.39987324  0.66537573     0.44200
Cu801      Cu  0.36693492  0.36201860  0.70290866     0.42000
Cu802      Cu  0.40329203  0.36056022  0.66333452     0.43900
N803        N  0.39049489  0.40145081  0.64737147    -0.34400
N804        N  0.40439890  0.38743063  0.64655815    -0.28700
C805        C  0.41869788  0.39341023  0.63365476    -0.04800
C806        C  0.41361680  0.41201486  0.62595809     0.07400
C807        C  0.39561981  0.41654205  0.63505868     0.01200
H808        H  0.43187083  0.38483446  0.63010245     0.08900
H809        H  0.38685641  0.42990100  0.63289144     0.08000
N810        N  0.39796018  0.33640475  0.68313381    -0.35900
N811        N  0.38487748  0.33771951  0.69782313    -0.28100
C812        C  0.38411554  0.32039959  0.70786048    -0.03300
C813        C  0.39732805  0.30722924  0.69925511     0.05300
C814        C  0.40591599  0.31786122  0.68356408     0.03400
H815        H  0.37425802  0.31750273  0.72028880     0.08500
H816        H  0.41697893  0.31243952  0.67316085     0.07300
N817        N  0.39902501  0.21195662  0.76604924    -0.27000
N818        N  0.41383962  0.19908993  0.76447434    -0.34900
C819        C  0.41327044  0.18591112  0.77943371     0.01300
C820        C  0.39704351  0.19006572  0.79114958     0.07300
C821        C  0.38806969  0.20661915  0.78218109    -0.05800
H822        H  0.42329373  0.17335904  0.78087866     0.08000
H823        H  0.37457001  0.21402313  0.78693973     0.09200
Cu824      Cu  0.43308534  0.19738153  0.74117110     0.44200
Cu825      Cu  0.39608301  0.23555438  0.74496986     0.42000
Cu826      Cu  0.43174052  0.23154584  0.70199156     0.43900
N827        N  0.45258031  0.19592365  0.71804812    -0.34400
N828        N  0.45250804  0.20880475  0.70325068    -0.28700
C829        C  0.46903568  0.20605857  0.69229832    -0.04800
C830        C  0.48001852  0.19069818  0.70081547     0.07400
C831        C  0.46889222  0.18451179  0.71698585     0.01200
H832        H  0.47363761  0.21581811  0.68032480     0.08900
H833        H  0.47329351  0.17404851  0.72843298     0.08000
N834        N  0.41362309  0.25589621  0.70762420    -0.35900
N835        N  0.40095708  0.25774363  0.72270310    -0.28100
C836        C  0.39287875  0.27619111  0.72175971    -0.03300
C837        C  0.40091792  0.28629909  0.70548753     0.05300
C838        C  0.41394124  0.27288952  0.69695158     0.03400
H839        H  0.38228770  0.28202456  0.73242904     0.08500
H840        H  0.42339202  0.27542181  0.68413083     0.07300
N841        N  0.25109742  0.08740228  0.79147992    -0.27000
N842        N  0.24947420  0.07404374  0.80598887    -0.34900
C843        C  0.26580227  0.07475461  0.81762713     0.01300
C844        C  0.27834386  0.08932782  0.81042195     0.07300
C845        C  0.26853930  0.09713028  0.79390606    -0.05800
H846        H  0.26833825  0.06526982  0.83042604     0.08000
H847        H  0.27396043  0.10867825  0.78405121     0.09200
Cu848      Cu  0.22601363  0.05436333  0.81016552     0.44200
Cu849      Cu  0.23033706  0.09132739  0.76787495     0.42000
Cu850      Cu  0.19130150  0.05583382  0.77151728     0.43900
N851        N  0.20307055  0.03384529  0.80787660    -0.34400
N852        N  0.18981590  0.03514868  0.79348788    -0.28700
C853        C  0.17852979  0.01873627  0.79315854    -0.04800
C854        C  0.18524670  0.00596016  0.80782709     0.07400
C855        C  0.20066908  0.01625044  0.81715187     0.01200
H856        H  0.16810024  0.01533181  0.78134706     0.08900
H857        H  0.21091407  0.01044389  0.82815777     0.08000
N858        N  0.19480173  0.07348150  0.74721184    -0.35900
N859        N  0.20822936  0.08775200  0.74552707    -0.28100
C860        C  0.20431965  0.09781738  0.72845234    -0.03300
C861        C  0.18806152  0.08882265  0.71903564     0.05300
C862        C  0.18262313  0.07348161  0.73142411     0.03400
H863        H  0.21242881  0.11079838  0.72339846     0.08500
H864        H  0.16984747  0.06378232  0.72980766     0.07300
N865        N  0.09161734  0.23754805  0.71081728    -0.27000
N866        N  0.07801949  0.23899685  0.69655252    -0.34900
C867        C  0.07875371  0.22263899  0.68492290     0.01300
C868        C  0.09361174  0.21030392  0.69194310     0.07300
C869        C  0.10155279  0.22024541  0.70829267    -0.05800
H870        H  0.06895203  0.21983090  0.67242008     0.08000
H871        H  0.11315544  0.21490185  0.71812377     0.09200
Cu872      Cu  0.05784019  0.26214929  0.69340966     0.44200
Cu873      Cu  0.09504558  0.25806321  0.73447107     0.42000
Cu874      Cu  0.05767647  0.29619479  0.73383242     0.43900
N875        N  0.03652169  0.28421318  0.69656564    -0.34400
N876        N  0.03691537  0.29699015  0.71150682    -0.28700
C877        C  0.02012892  0.30776988  0.71151583    -0.04800
C878        C  0.00825829  0.30129992  0.69596215     0.07400
C879        C  0.01926149  0.28642973  0.68664472     0.01200
H880        H  0.01603075  0.31798980  0.72330755     0.08900
H881        H  0.01430936  0.27661627  0.67483583     0.08000
N882        N  0.07664254  0.29205995  0.75739195    -0.35900
N883        N  0.09117160  0.27877612  0.75784571    -0.28100
C884        C  0.10147248  0.28138385  0.77499371    -0.03300
C885        C  0.09253452  0.29670786  0.78580205     0.05300
C886        C  0.07687941  0.30299677  0.77412997     0.03400
H887        H  0.11446795  0.27285939  0.77926187     0.08500
H888        H  0.06686144  0.31527832  0.77713924     0.07300
N889        N  0.26310451  0.39666220  0.72414562    -0.27000
N890        N  0.26070940  0.40675698  0.70733335    -0.34900
C891        C  0.27811810  0.40770471  0.69751303     0.01300
C892        C  0.29229829  0.39763088  0.70841506     0.07300
C893        C  0.28229714  0.39072424  0.72520771    -0.05800
H894        H  0.28023994  0.41521422  0.68339052     0.08000
H895        H  0.28857439  0.38224315  0.73740346     0.09200
Cu896      Cu  0.23453469  0.41983349  0.69790657     0.44200
Cu897      Cu  0.24012638  0.39219335  0.74523250     0.42000
Cu898      Cu  0.19314917  0.41442606  0.72996028     0.43900
N899        N  0.20942623  0.43737972  0.69575980    -0.34400
N900        N  0.19397158  0.43511747  0.70762367    -0.28700
C901        C  0.18214271  0.45115463  0.70623317    -0.04800
C902        C  0.19074419  0.46448596  0.69308021     0.07400
C903        C  0.20785361  0.45497021  0.68638299     0.01200
H904        H  0.16988503  0.45410461  0.71627161     0.08900
H905        H  0.21975974  0.46153424  0.67773924     0.08000
N906        N  0.19786027  0.40221386  0.75756955    -0.35900
N907        N  0.21451776  0.39352091  0.76352024    -0.28100
C908        C  0.21168771  0.38682662  0.78233791    -0.03300
C909        C  0.19262607  0.39222469  0.78843945     0.05300
C910        C  0.18439119  0.40186178  0.77232580     0.03400
H911        H  0.22267396  0.37880436  0.79098622     0.08500
H912        H  0.16942597  0.40773617  0.77116540     0.07300
N913        N  0.29885409  0.87297898  0.84830284    -0.27000
N914        N  0.30743814  0.89052591  0.85066643    -0.34900
C915        C  0.30073366  0.90272286  0.83615171     0.01300
C916        C  0.28781028  0.89204995  0.82390082     0.07300
C917        C  0.28694984  0.87330122  0.83221461    -0.05800
H918        H  0.30424719  0.91842653  0.83508970     0.08000
H919        H  0.27710293  0.86126986  0.82792113     0.09200
Cu920      Cu  0.32639955  0.89649459  0.87499163     0.44200
Cu921      Cu  0.30102564  0.85045409  0.86865205     0.42000
Cu922      Cu  0.33266411  0.85513950  0.91160409     0.43900
N923        N  0.34408860  0.89829085  0.90092302    -0.34400
N924        N  0.34631067  0.88369234  0.91409177    -0.28700
C925        C  0.35833046  0.89027328  0.92891674    -0.04800
C926        C  0.36403729  0.90984668  0.92496716     0.07400
C927        C  0.35468701  0.91431036  0.90704875     0.01200
H928        H  0.36262852  0.88144667  0.94171753     0.08900
H929        H  0.35540169  0.92831422  0.89909087     0.08000
N930        N  0.31557585  0.82921716  0.90516116    -0.35900
N931        N  0.30354527  0.82849665  0.88956668    -0.28100
C932        C  0.29407536  0.81089723  0.88895119    -0.03300
C933        C  0.30051440  0.79951346  0.90473027     0.05300
C934        C  0.31425380  0.81150982  0.91475726     0.03400
H935        H  0.28370948  0.80650320  0.87739549     0.08500
H936        H  0.32257912  0.80764234  0.92801520     0.07300
N937        N  0.29912635  0.61093381  0.65379857    -0.27000
N938        N  0.30573631  0.59291442  0.64927738    -0.34900
C939        C  0.29615371  0.57955884  0.66079869     0.01300
C940        C  0.28322224  0.58973221  0.67336435     0.07300
C941        C  0.28552242  0.60959196  0.66849039    -0.05800
H942        H  0.29805225  0.56357217  0.65975471     0.08000
H943        H  0.27698146  0.62201907  0.67422064     0.09200
Cu944      Cu  0.32663398  0.58748260  0.62666693     0.44200
Cu945      Cu  0.30644945  0.63614581  0.63775778     0.42000
Cu946      Cu  0.33681591  0.62965567  0.59348358     0.43900
N947        N  0.34666851  0.58602977  0.60272190    -0.34400
N948        N  0.35026047  0.60117293  0.59055355    -0.28700
C949        C  0.36346834  0.59511630  0.57659977    -0.04800
C950        C  0.36852055  0.57529660  0.58012402     0.07400
C951        C  0.35757161  0.57011677  0.59687354     0.01200
H952        H  0.36903245  0.60446921  0.56469742     0.08900
H953        H  0.35738889  0.55573939  0.60417910     0.08000
N954        N  0.32063943  0.65603066  0.60004397    -0.35900
N955        N  0.30967062  0.65801053  0.61632419    -0.28100
C956        C  0.30039265  0.67580548  0.61611020    -0.03300
C957        C  0.30575085  0.68580659  0.59894713     0.05300
C958        C  0.31868336  0.67284874  0.58910772     0.03400
H959        H  0.29021964  0.68093684  0.62752764     0.08500
H960        H  0.32574326  0.67528671  0.57481469     0.07300
N961        N  0.17518402  0.60047729  0.83174374    -0.27000
N962        N  0.16426654  0.58432196  0.83461491    -0.34900
C963        C  0.16652279  0.57229869  0.81851807     0.01300
C964        C  0.17958911  0.58138729  0.80513183     0.07300
C965        C  0.18470360  0.59916740  0.81415657    -0.05800
H966        H  0.15944044  0.55791590  0.81678464     0.08000
H967        H  0.19473053  0.61040465  0.80840347     0.09200
Cu968      Cu  0.14763589  0.58018020  0.86125553     0.44200
Cu969      Cu  0.17751853  0.62360547  0.85190834     0.42000
Cu970      Cu  0.15680116  0.61748561  0.90111506     0.43900
N971        N  0.13401066  0.57962020  0.88988114    -0.34400
N972        N  0.13722990  0.59296750  0.90414527    -0.28700
C973        C  0.12640593  0.58788660  0.92041944    -0.04800
C974        C  0.11589146  0.57047944  0.91639941     0.07400
C975        C  0.12114451  0.56578111  0.89686475     0.01200
H976        H  0.12641810  0.59610928  0.93431356     0.08900
H977        H  0.11608503  0.55302305  0.88838044     0.08000
N978        N  0.17687023  0.64050744  0.89340952    -0.35900
N979        N  0.18347538  0.64301628  0.87500813    -0.28100
C980        C  0.19659310  0.65816509  0.87458129    -0.03300
C981        C  0.19858044  0.66572471  0.89362503     0.05300
C982        C  0.18609795  0.65392510  0.90526592     0.03400
H983        H  0.20531885  0.66225062  0.86164901     0.08500
H984        H  0.18452194  0.65453289  0.92131470     0.07300
N985        N  0.20385016  0.57156080  0.75695716    -0.27000
N986        N  0.19106606  0.55651922  0.75774373    -0.34900
C987        C  0.18066392  0.55755016  0.77493245     0.01300
C988        C  0.18698871  0.57406385  0.78555542     0.07300
C989        C  0.20169511  0.58257215  0.77368388    -0.05800
H990        H  0.16921269  0.54707727  0.77929686     0.08000
H991        H  0.21028898  0.59580110  0.77701871     0.09200
Cu992      Cu  0.18786354  0.53494734  0.73561852     0.44200
Cu993      Cu  0.22413011  0.57657530  0.73325728     0.42000
Cu994      Cu  0.22174771  0.53937028  0.69490879     0.43900
N995        N  0.18958235  0.51432759  0.71249162    -0.34400
N996        N  0.20203876  0.51634673  0.69743328    -0.28700
C997        C  0.20194313  0.49972215  0.68633169    -0.04800
C998        C  0.18894056  0.48626395  0.69489063     0.07400
C999        C  0.18116933  0.49618001  0.71136527     0.01200
H1000       H  0.21219843  0.49691733  0.67421004     0.08900
H1001       H  0.17174795  0.48994812  0.72285654     0.08000
N1002       N  0.24269797  0.56144403  0.69506164    -0.35900
N1003       N  0.24358173  0.57593864  0.70840607    -0.28100
C1004       C  0.25842667  0.58845660  0.70299489    -0.03300
C1005       C  0.26736533  0.58098114  0.68579127     0.05300
C1006       C  0.25698624  0.56387718  0.68131710     0.03400
H1007       H  0.26254361  0.60183411  0.71102253     0.08500
H1008       H  0.25919058  0.55420041  0.66858011     0.07300
N1009       N  0.27912851  0.74924265  0.90771880    -0.27000
N1010       N  0.29544637  0.74722165  0.91866022    -0.34900
C1011       C  0.30514952  0.76474601  0.91965756     0.01300
C1012       C  0.29473848  0.77860193  0.90866577     0.07300
C1013       C  0.27835324  0.76828239  0.90121174    -0.05800
H1014       H  0.31896354  0.76710891  0.92762474     0.08000
H1015       H  0.26663812  0.77425358  0.89189007     0.09200
Cu1016     Cu  0.30461194  0.72126197  0.93232862     0.44200
Cu1017     Cu  0.25821317  0.72601858  0.90259048     0.42000
Cu1018     Cu  0.27254716  0.67989509  0.92643419     0.43900
N1019       N  0.30668663  0.69598598  0.94961093    -0.34400
N1020       N  0.29480431  0.68056530  0.94717565    -0.28700
C1021       C  0.29611550  0.66861284  0.96311735    -0.04800
C1022       C  0.30917914  0.67712860  0.97660763     0.07400
C1023       C  0.31598235  0.69426909  0.96722969     0.01200
H1024       H  0.28599967  0.65639134  0.96595786     0.08900
H1025       H  0.32452678  0.70616926  0.97397569     0.08000
N1026       N  0.24564755  0.68379941  0.91263045    -0.35900
N1027       N  0.23999113  0.70014637  0.90316698    -0.28100
C1028       C  0.22177273  0.69666920  0.89521274    -0.03300
C1029       C  0.21574427  0.67752866  0.90062516     0.05300
C1030       C  0.23130778  0.66993538  0.91154905     0.03400
H1031       H  0.21350168  0.70723002  0.88626827     0.08500
H1032       H  0.23245345  0.65508346  0.91774662     0.07300
N1033       N  0.18675506  0.84059303  0.61696586    -0.27000
N1034       N  0.17938124  0.84390775  0.59898496    -0.34900
C1035       C  0.18684095  0.82995975  0.58650796     0.01300
C1036       C  0.19907050  0.81713231  0.59733795     0.07300
C1037       C  0.19859431  0.82441944  0.61656256    -0.05800
H1038       H  0.18420805  0.82959932  0.57059223     0.08000
H1039       H  0.20748928  0.81934265  0.62902427     0.09200
Cu1040     Cu  0.16067872  0.86850834  0.59270483     0.44200
Cu1041     Cu  0.18343859  0.85989412  0.64059497     0.42000
Cu1042     Cu  0.15481503  0.90479660  0.63390760     0.43900
N1043       N  0.14276513  0.89441793  0.59097709    -0.34400
N1044       N  0.14069064  0.90744142  0.60574029    -0.28700
C1045       C  0.12848988  0.92226315  0.59958082    -0.04800
C1046       C  0.12250469  0.91853721  0.58005493     0.07400
C1047       C  0.13188400  0.90069887  0.57518761     0.01200
H1048       H  0.12431148  0.93494473  0.60865079     0.08900
H1049       H  0.13097026  0.89290772  0.56107596     0.08000
N1050       N  0.17152173  0.89851850  0.65997761    -0.35900
N1051       N  0.18221255  0.88205755  0.66182302    -0.28100
C1052       C  0.19169146  0.88208493  0.67949277    -0.03300
C1053       C  0.18664490  0.89926486  0.68962533     0.05300
C1054       C  0.17376565  0.90937120  0.67684173     0.03400
H1055       H  0.20131273  0.87023499  0.68470190     0.08500
H1056       H  0.16667934  0.92360037  0.67956999     0.07300
N1057       N  0.20907389  0.90599952  0.73916709    -0.27000
N1058       N  0.19435001  0.91915287  0.73979671    -0.34900
C1059       C  0.18448212  0.91897156  0.72231344     0.01300
C1060       C  0.19311316  0.90492603  0.70999329     0.07300
C1061       C  0.20864390  0.89693143  0.72116639    -0.05800
H1062       H  0.17176149  0.92827973  0.71892782     0.08000
H1063       H  0.21899259  0.88549343  0.71646261     0.09200
Cu1064     Cu  0.18759403  0.93721923  0.76398919     0.44200
Cu1065     Cu  0.22956578  0.90138754  0.76275939     0.42000
Cu1066     Cu  0.22005427  0.93345535  0.80513009     0.43900
N1067       N  0.18653950  0.95653022  0.78809954    -0.34400
N1068       N  0.19863109  0.95482061  0.80346296    -0.28700
C1069       C  0.19735612  0.97115613  0.81491128    -0.04800
C1070       C  0.18396187  0.98413452  0.80619238     0.07400
C1071       C  0.17709800  0.97411674  0.78936577     0.01200
H1072       H  0.20736545  0.97435076  0.82714303     0.08900
H1073       H  0.16791748  0.98014402  0.77757024     0.08000
N1074       N  0.24466954  0.91587064  0.80277457    -0.35900
N1075       N  0.24834441  0.90324987  0.78806779    -0.28100
C1076       C  0.26513326  0.89311181  0.79272066    -0.03300
C1077       C  0.27240802  0.90040018  0.81077626     0.05300
C1078       C  0.25898412  0.91468462  0.81662480     0.03400
H1079       H  0.27151404  0.88131101  0.78375868     0.08500
H1080       H  0.25901974  0.92295630  0.83049343     0.07300
N1081       N  0.28043523  0.73340104  0.58847210    -0.27000
N1082       N  0.29431603  0.73307519  0.57441647    -0.34900
C1083       C  0.30533202  0.71641108  0.57618355     0.01300
C1084       C  0.29835515  0.70553182  0.59215999     0.07300
C1085       C  0.28256770  0.71675848  0.59967691    -0.05800
H1086       H  0.31749829  0.71245293  0.56636990     0.08000
H1087       H  0.27308831  0.71288864  0.61212865     0.09200
Cu1088     Cu  0.29818648  0.75440115  0.55247551     0.44200
Cu1089     Cu  0.25861343  0.75633534  0.59104671     0.42000
Cu1090     Cu  0.26323162  0.79347419  0.55213848     0.43900
N1091       N  0.29699914  0.77539693  0.52994641    -0.34400
N1092       N  0.28406572  0.79015953  0.53023292    -0.28700
C1093       C  0.28463101  0.79988589  0.51280295    -0.04800
C1094       C  0.29847156  0.79063834  0.50067210     0.07400
C1095       C  0.30618452  0.77523042  0.51214469     0.01200
H1096       H  0.27420444  0.81143353  0.50860079     0.08900
H1097       H  0.31621254  0.76358306  0.50727978     0.08000
N1098       N  0.24039082  0.79330863  0.57225342    -0.35900
N1099       N  0.23854959  0.78063561  0.58724538    -0.28100
C1100       C  0.22272827  0.78652038  0.59831187    -0.03300
C1101       C  0.21417288  0.80324322  0.58935586     0.05300
C1102       C  0.22582535  0.80697073  0.57293154     0.03400
H1103       H  0.21792192  0.77936815  0.61193875     0.08500
H1104       H  0.22452418  0.81943088  0.56276451     0.07300
N1105       N  0.34995060  0.79033260  0.11838070    -0.27000
N1106       N  0.35350545  0.79764528  0.10042348    -0.34900
C1107       C  0.34172673  0.78799581  0.08725269     0.01300
C1108       C  0.32996822  0.77442021  0.09760070     0.07300
C1109       C  0.33564974  0.77633229  0.11726700    -0.05800
H1110       H  0.34186296  0.79045843  0.07130884     0.08000
H1111       H  0.33057754  0.76742728  0.12972008     0.09200
Cu1112     Cu  0.37491466  0.82013372  0.09540002     0.44200
Cu1113     Cu  0.36611929  0.79800901  0.14330627     0.42000
Cu1114     Cu  0.40589909  0.83409679  0.13872407     0.43900
N1115       N  0.39708742  0.84246304  0.09479080    -0.34400
N1116       N  0.40853732  0.84719448  0.11020127    -0.28700
C1117       C  0.42134612  0.86168704  0.10452793    -0.04800
C1118       C  0.41772786  0.86654073  0.08470195     0.07400
C1119       C  0.40219255  0.85404548  0.07911869     0.01200
H1120       H  0.43232517  0.86842559  0.11422178     0.08900
H1121       H  0.39520511  0.85330976  0.06459145     0.08000
N1122       N  0.39899973  0.81900140  0.16547059    -0.35900
N1123       N  0.38451128  0.80569783  0.16664370    -0.28100
C1124       C  0.38363354  0.79829976  0.18524382    -0.03300
C1125       C  0.39812619  0.80742853  0.19660695     0.05300
C1126       C  0.40763139  0.82051245  0.18361895     0.03400
H1127       H  0.37305687  0.78716553  0.19013973     0.08500
H1128       H  0.41996890  0.83028646  0.18707974     0.07300
N1129       N  0.16872652  0.67135386  0.11032917    -0.27000
N1130       N  0.16439110  0.66208811  0.09345900    -0.34900
C1131       C  0.17978965  0.66484856  0.08071430     0.01300
C1132       C  0.19418537  0.67652541  0.09015394     0.07300
C1133       C  0.18652806  0.68030532  0.10882921    -0.05800
H1134       H  0.18041761  0.65897711  0.06569401     0.08000
H1135       H  0.19340261  0.68893072  0.12060911     0.09200
Cu1136     Cu  0.13707148  0.64662210  0.08962731     0.44200
Cu1137     Cu  0.15056608  0.67234745  0.13488589     0.42000
Cu1138     Cu  0.10112365  0.65171440  0.13095018     0.43900
N1139       N  0.10867634  0.63268105  0.09020886    -0.34400
N1140       N  0.09568195  0.63432324  0.10501965    -0.28700
C1141       C  0.07925323  0.62346884  0.10039823    -0.04800
C1142       C  0.08191708  0.61454729  0.08180224     0.07400
C1143       C  0.10077706  0.62083179  0.07593805     0.01200
H1144       H  0.06625867  0.62221195  0.10984390     0.08900
H1145       H  0.10825245  0.61702487  0.06215877     0.08000
N1146       N  0.11064626  0.67081403  0.15435579    -0.35900
N1147       N  0.12900363  0.67777972  0.15581922    -0.28100
C1148       C  0.13032898  0.69049887  0.17134024    -0.03300
C1149       C  0.11185339  0.69184159  0.18020480     0.05300
C1150       C  0.09973655  0.67916787  0.16902273     0.03400
H1151       H  0.14341601  0.69918884  0.17495487     0.08500
H1152       H  0.08389691  0.67692837  0.17087084     0.07300
N1153       N  0.29404789  0.73520080  0.08494213    -0.27000
N1154       N  0.30800504  0.73257751  0.07127933    -0.34900
C1155       C  0.32218372  0.74653748  0.07328247     0.01300
C1156       C  0.31732030  0.75849761  0.08923451     0.07300
C1157       C  0.29947262  0.75082626  0.09650250    -0.05800
H1158       H  0.33542098  0.74748803  0.06413306     0.08000
H1159       H  0.29099071  0.75636512  0.10905361     0.09200
Cu1160     Cu  0.30812062  0.70995464  0.05073903     0.44200
Cu1161     Cu  0.26819507  0.71716561  0.08585482     0.42000
Cu1162     Cu  0.26369982  0.68149404  0.04424965     0.43900
N1163       N  0.30439657  0.68997023  0.02797443    -0.34400
N1164       N  0.28794915  0.67958147  0.02532317    -0.28700
C1165       C  0.28883071  0.67054605  0.00748254    -0.04800
C1166       C  0.30661770  0.67576449  0.99831230     0.07400
C1167       C  0.31616770  0.68792398  0.01195247     0.01200
H1168       H  0.27645852  0.66266591  0.00080466     0.08900
H1169       H  0.32960221  0.69647734  0.00951689     0.08000
N1170       N  0.24159668  0.68625426  0.06522284    -0.35900
N1171       N  0.24321335  0.69862316  0.08056027    -0.28100
C1172       C  0.22645912  0.69720093  0.09156310    -0.03300
C1173       C  0.21372899  0.68347167  0.08263821     0.05300
C1174       C  0.22383908  0.67692739  0.06594459     0.03400
H1175       H  0.22373190  0.70555190  0.10510099     0.08500
H1176       H  0.21888647  0.66582728  0.05532303     0.07300
N1177       N  0.38297892  0.68174258  0.34262171    -0.27000
N1178       N  0.40104341  0.68119050  0.35049020    -0.34900
C1179       C  0.41209359  0.69556751  0.34178699     0.01300
C1180       C  0.40044708  0.70527440  0.32764309     0.07300
C1181       C  0.38214488  0.69605826  0.32861810    -0.05800
H1182       H  0.42723807  0.69918332  0.34592813     0.08000
H1183       H  0.36867828  0.70059739  0.32100752     0.09200
Cu1184     Cu  0.40889747  0.66184103  0.37398418     0.44200
Cu1185     Cu  0.35855622  0.66717057  0.35417830     0.42000
Cu1186     Cu  0.36598820  0.64917218  0.40402457     0.43900
N1187       N  0.41045794  0.64201765  0.39832115    -0.34400
N1188       N  0.39471281  0.63754786  0.40934109    -0.28700
C1189       C  0.40040745  0.62497941  0.42399153    -0.04800
C1190       C  0.42068332  0.62120749  0.42220972     0.07400
C1191       C  0.42650735  0.63224901  0.40566219     0.01200
H1192       H  0.39050137  0.61905536  0.43524761     0.08900
H1193       H  0.44139648  0.63335289  0.39960794     0.08000
N1194       N  0.33975950  0.66366818  0.39450409    -0.35900
N1195       N  0.33681355  0.66906170  0.37579081    -0.28100
C1196       C  0.32011916  0.68011217  0.37453031    -0.03300
C1197       C  0.31194918  0.68201507  0.39335933     0.05300
C1198       C  0.32495442  0.67144825  0.40565369     0.03400
H1199       H  0.31574339  0.68834394  0.36136268     0.08500
H1200       H  0.32459762  0.67099067  0.42178219     0.07300
N1201       N  0.15377032  0.79847298  0.38344930    -0.27000
N1202       N  0.15486788  0.81132068  0.39837932    -0.34900
C1203       C  0.17241242  0.80825359  0.40783335     0.01300
C1204       C  0.18253303  0.79266878  0.39839159     0.07300
C1205       C  0.17013318  0.78690490  0.38305962    -0.05800
H1206       H  0.17757322  0.81685334  0.42047539     0.08000
H1207       H  0.17314365  0.77569368  0.37183722     0.09200
Cu1208     Cu  0.13180100  0.83252349  0.40384054     0.44200
Cu1209     Cu  0.13146811  0.79865995  0.36259482     0.42000
Cu1210     Cu  0.09514721  0.83784874  0.36238460     0.43900
N1211       N  0.10603663  0.85114535  0.40519623    -0.34400
N1212       N  0.09294783  0.85292974  0.39044984    -0.28700
C1213       C  0.07829729  0.86550204  0.39641801    -0.04800
C1214       C  0.08213125  0.87212719  0.41577269     0.07400
C1215       C  0.09993614  0.86263904  0.42072521     0.01200
H1216       H  0.06563550  0.86955684  0.38730859     0.08900
H1217       H  0.10780087  0.86387530  0.43475353     0.08000
N1218       N  0.10095340  0.81925291  0.33711837    -0.35900
N1219       N  0.11430174  0.80478832  0.33807535    -0.28100
C1220       C  0.11545585  0.79526228  0.32048959    -0.03300
C1221       C  0.10216573  0.80386342  0.30742550     0.05300
C1222       C  0.09312111  0.81910004  0.31845930     0.03400
H1223       H  0.12539737  0.78292588  0.31746432     0.08500
H1224       H  0.08173884  0.82926575  0.31327095     0.07300
N1225       N  0.27789727  0.72438080  0.40124158    -0.27000
N1226       N  0.29342292  0.72886566  0.41255143    -0.34900
C1227       C  0.30675485  0.71403103  0.41214743     0.01300
C1228       C  0.29982019  0.69926361  0.39977894     0.07300
C1229       C  0.28153171  0.70633925  0.39278124    -0.05800
H1230       H  0.32092337  0.71433591  0.41984105     0.08000
H1231       H  0.27167419  0.69890460  0.38240573     0.09200
Cu1232     Cu  0.29756888  0.75468127  0.42816193     0.44200
Cu1233     Cu  0.25289434  0.74402484  0.39896009     0.42000
Cu1234     Cu  0.25928637  0.78978825  0.42943454     0.43900
N1235       N  0.29648172  0.77642494  0.44939276    -0.34400
N1236       N  0.28207120  0.78970694  0.44997294    -0.28700
C1237       C  0.28269045  0.79920394  0.46757355    -0.04800
C1238       C  0.29811788  0.79119350  0.47877270     0.07400
C1239       C  0.30670049  0.77695452  0.46656418     0.01200
H1240       H  0.27118055  0.80923148  0.47274469     0.08900
H1241       H  0.31780652  0.76604823  0.47073909     0.08000
N1242       N  0.23376822  0.78295516  0.41377576    -0.35900
N1243       N  0.23088309  0.76683034  0.40268852    -0.28100
C1244       C  0.21210505  0.76774810  0.39534335    -0.03300
C1245       C  0.20291866  0.78506115  0.40240821     0.05300
C1246       C  0.21718217  0.79417916  0.41399822     0.03400
H1247       H  0.20548746  0.75653025  0.38582003     0.08500
H1248       H  0.21566287  0.80805484  0.42210751     0.07300
N1249       N  0.09884907  0.77929207  0.25839256    -0.27000
N1250       N  0.08415052  0.79249312  0.25709026    -0.34900
C1251       C  0.08358515  0.80362372  0.27384858     0.01300
C1252       C  0.09847097  0.79729725  0.28654445     0.07300
C1253       C  0.10787163  0.78188859  0.27623029    -0.05800
H1254       H  0.07255132  0.81499106  0.27687812     0.08000
H1255       H  0.12002574  0.77277041  0.28160574     0.09200
Cu1256     Cu  0.06322549  0.79443088  0.23427890     0.44200
Cu1257     Cu  0.10550136  0.75662506  0.23690457     0.42000
Cu1258     Cu  0.06201594  0.74874215  0.21000742     0.43900
N1259       N  0.04116353  0.78743479  0.21371361    -0.34400
N1260       N  0.04140973  0.77001462  0.20466724    -0.28700
C1261       C  0.02520560  0.76792869  0.19331797    -0.04800
C1262       C  0.01367690  0.78476695  0.19551853     0.07400
C1263       C  0.02427425  0.79695848  0.20857006     0.01200
H1264       H  0.02138809  0.75436125  0.18547110     0.08900
H1265       H  0.01941799  0.81095816  0.21495090     0.08000
N1266       N  0.08537022  0.73007607  0.20732452    -0.35900
N1267       N  0.10288983  0.73299115  0.21570384    -0.28100
C1268       C  0.11558669  0.71925357  0.20793498    -0.03300
C1269       C  0.10498922  0.70719851  0.19451559     0.05300
C1270       C  0.08598940  0.71466779  0.19471187     0.03400
H1271       H  0.13124697  0.71819144  0.21155061     0.08500
H1272       H  0.07367539  0.71011001  0.18534853     0.07300
N1273       N  0.40378516  0.78939257  0.24786254    -0.27000
N1274       N  0.41592004  0.80497692  0.24801171    -0.34900
C1275       C  0.41548477  0.81391888  0.23004342     0.01300
C1276       C  0.40242171  0.80364197  0.21790988     0.07300
C1277       C  0.39520637  0.78823050  0.22970241    -0.05800
H1278       H  0.42441431  0.82671679  0.22599757     0.08000
H1279       H  0.38496435  0.77662194  0.22520119     0.09200
Cu1280     Cu  0.43419001  0.81302217  0.27161119     0.44200
Cu1281     Cu  0.40050575  0.76912744  0.27171126     0.42000
Cu1282     Cu  0.43080013  0.78108344  0.31408484     0.43900
N1283       N  0.45542101  0.81221581  0.29399924    -0.34400
N1284       N  0.45368956  0.80065597  0.30979619    -0.28700
C1285       C  0.47113041  0.79986934  0.31945353    -0.04800
C1286       C  0.48478227  0.81125629  0.30911834     0.07400
C1287       C  0.47416897  0.81916823  0.29319396     0.01200
H1288       H  0.47427248  0.78956330  0.33144949     0.08900
H1289       H  0.48023591  0.82711043  0.28054356     0.08000
N1290       N  0.41585379  0.75459404  0.31148770    -0.35900
N1291       N  0.40417690  0.74989514  0.29632296    -0.28100
C1292       C  0.39683573  0.73142036  0.29956924    -0.03300
C1293       C  0.40478968  0.72420348  0.31732822     0.05300
C1294       C  0.41676653  0.73930967  0.32437096     0.03400
H1295       H  0.38683398  0.72364112  0.28959163     0.08500
H1296       H  0.42536064  0.73934253  0.33802983     0.07300
C1297       C  0.90776126  0.00854594  0.43008776    -0.05100
C1298       C  0.91327847  0.00616648  0.40978249    -0.02200
C1299       C  0.92041903  0.98756934  0.40257721     0.02800
C1300       C  0.92337212  0.97132110  0.41568475    -0.05100
C1301       C  0.91778673  0.97354028  0.43589021    -0.02200
C1302       C  0.90960571  0.99179267  0.44292792     0.02800
C1303       C  0.91246032  0.02304941  0.39630805     0.37400
C1304       C  0.91972746  0.95671886  0.44932602     0.37400
C1305       C  0.90213212  0.99291369  0.46319988     0.35800
C1306       C  0.92484717  0.98517206  0.38153519     0.35800
N1307       N  0.89597282  0.99378063  0.47930234    -0.39000
N1308       N  0.92815761  0.98312376  0.36471680    -0.39000
N1309       N  0.92121411  0.94329068  0.46005589    -0.38400
N1310       N  0.91194733  0.03652493  0.38554581    -0.38400
C1311       C  0.92043277  0.07350497  0.52147189    -0.05100
C1312       C  0.93316091  0.07421193  0.50460285    -0.02200
C1313       C  0.92637590  0.06762990  0.48567154     0.02800
C1314       C  0.90679190  0.06035699  0.48324980    -0.05100
C1315       C  0.89389282  0.06013282  0.49987838    -0.02200
C1316       C  0.90075957  0.06623684  0.51892546     0.02800
C1317       C  0.95301900  0.08250668  0.50643578     0.37400
C1318       C  0.87340229  0.05379642  0.49733298     0.37400
C1319       C  0.88770218  0.06429965  0.53604797     0.35800
C1320       C  0.93921796  0.06933601  0.46836469     0.35800
N1321       N  0.87733262  0.06262892  0.54973181    -0.39000
N1322       N  0.94932912  0.07087712  0.45447493    -0.39000
N1323       N  0.85698913  0.04897485  0.49524095    -0.38400
N1324       N  0.96885639  0.08915713  0.50786787    -0.38400
C1325       C  0.98000846  0.92292056  0.41236827    -0.05100
C1326       C  0.99510804  0.93737858  0.41610538    -0.02200
C1327       C  0.01451920  0.93159530  0.42245818     0.02800
C1328       C  0.01950501  0.91126332  0.42510181    -0.05100
C1329       C  0.00456130  0.89681873  0.42147692    -0.02200
C1330       C  0.98510617  0.90251859  0.41515894     0.02800
C1331       C  0.99104216  0.95837176  0.41286844     0.37400
C1332       C  0.00891788  0.87598073  0.42526840     0.37400
C1333       C  0.97013569  0.88720032  0.41236551     0.35800
C1334       C  0.02961671  0.94669504  0.42584565     0.35800
N1335       N  0.95823524  0.87491697  0.41014449    -0.39000
N1336       N  0.04168072  0.95872101  0.42854470    -0.39000
N1337       N  0.01240855  0.85938460  0.42844852    -0.38400
N1338       N  0.98786626  0.97514527  0.41033357    -0.38400
C1339       C  0.08528959  0.92896927  0.51636870    -0.05100
C1340       C  0.09920609  0.92219010  0.50200888    -0.02200
C1341       C  0.09287355  0.91493103  0.48299925     0.02800
C1342       C  0.07226852  0.91388913  0.47787661    -0.05100
C1343       C  0.05837567  0.92056961  0.49260226    -0.02200
C1344       C  0.06484514  0.92818131  0.51136263     0.02800
C1345       C  0.12029998  0.92333276  0.50654565     0.37400
C1346       C  0.03711021  0.91910282  0.48907488     0.37400
C1347       C  0.05018303  0.93460122  0.52593554     0.35800
C1348       C  0.10792568  0.90912780  0.46862384     0.35800
N1349       N  0.03852393  0.93975393  0.53756243    -0.39000
N1350       N  0.12007684  0.90453629  0.45726914    -0.39000
N1351       N  0.02011342  0.91802189  0.48641538    -0.38400
N1352       N  0.13711724  0.92428235  0.51020086    -0.38400
C1353       C  0.01083237  0.06545321  0.58852138    -0.05100
C1354       C  0.00638725  0.08583400  0.58462423    -0.02200
C1355       C  0.98712644  0.09175808  0.57800700     0.02800
C1356       C  0.97191334  0.07752127  0.57487214    -0.05100
C1357       C  0.97625791  0.05722795  0.57859850    -0.02200
C1358       C  0.99541864  0.05122698  0.58533747     0.02800
C1359       C  0.02189813  0.10078522  0.58627300     0.37400
C1360       C  0.96073982  0.04240803  0.57592065     0.37400
C1361       C  0.99894486  0.03024235  0.58919580     0.35800
C1362       C  0.98321504  0.11254364  0.57352042     0.35800
N1363       N  0.00160210  0.01343604  0.59206597    -0.39000
N1364       N  0.98007647  0.12911120  0.56986356    -0.39000
N1365       N  0.94835642  0.03059100  0.57382630    -0.38400
N1366       N  0.03426626  0.11274342  0.58747200    -0.38400
C1367       C  0.06665408  0.01632803  0.58713008    -0.05100
C1368       C  0.06027296  0.99770867  0.59467421    -0.02200
C1369       C  0.06807333  0.97961598  0.58686240     0.02800
C1370       C  0.08205275  0.97980703  0.57105088    -0.05100
C1371       C  0.08856692  0.99846548  0.56363879    -0.02200
C1372       C  0.08113554  0.01656905  0.57181601     0.02800
C1373       C  0.04590320  0.99716886  0.61079575     0.37400
C1374       C  0.10327473  0.99907348  0.54784077     0.37400
C1375       C  0.08841062  0.03555226  0.56448680     0.35800
C1376       C  0.06150875  0.96069872  0.59497840     0.35800
N1377       N  0.09422995  0.05076521  0.55880858    -0.39000
N1378       N  0.05634845  0.94557008  0.60145912    -0.39000
N1379       N  0.11502637  0.99961828  0.53523045    -0.38400
N1380       N  0.03447065  0.99672433  0.62370227    -0.38400
C1381       C  0.90834706  0.41878575  0.01720660    -0.05100
C1382       C  0.92338466  0.40404876  0.01648580    -0.02200
C1383       C  0.92993840  0.39620683  0.99796115     0.02800
C1384       C  0.92179747  0.40324140  0.97981953    -0.05100
C1385       C  0.90670931  0.41794546  0.98051899    -0.02200
C1386       C  0.89989053  0.42553895  0.99909389     0.02800
C1387       C  0.93255886  0.39738550  0.03489956     0.37400
C1388       C  0.89868443  0.42574455  0.96202177     0.37400
C1389       C  0.88398978  0.44014531  0.99955446     0.35800
C1390       C  0.94494378  0.38067441  0.99762203     0.35800
N1391       N  0.87119917  0.45171038  0.99983684    -0.39000
N1392       N  0.95686056  0.36820766  0.99745717    -0.39000
N1393       N  0.89246895  0.43198120  0.94718133    -0.38400
N1394       N  0.93985191  0.39226509  0.04967472    -0.38400
C1395       C  0.91211275  0.47313481  0.06741959    -0.05100
C1396       C  0.93112727  0.47497018  0.07626976    -0.02200
C1397       C  0.93821036  0.49381477  0.08293849     0.02800
C1398       C  0.92617935  0.51114537  0.08122283    -0.05100
C1399       C  0.90736394  0.50929308  0.07174829    -0.02200
C1400       C  0.90057921  0.49051881  0.06462463     0.02800
C1401       C  0.94350503  0.45736835  0.07835345     0.37400
C1402       C  0.89517418  0.52686394  0.06865116     0.37400
C1403       C  0.88193530  0.48915001  0.05380205     0.35800
C1404       C  0.95778935  0.49518199  0.09194945     0.35800
N1405       N  0.86720154  0.48805167  0.04491370    -0.39000
N1406       N  0.97347617  0.49624305  0.09902290    -0.39000
N1407       N  0.88545420  0.54089969  0.06618590    -0.38400
N1408       N  0.95334117  0.44328110  0.07990321    -0.38400
C1409       C  0.01465621  0.41599039  0.91602626    -0.05100
C1410       C  0.01032214  0.41400761  0.93653938    -0.02200
C1411       C  0.99139029  0.40711813  0.94304338     0.02800
C1412       C  0.97603334  0.40247290  0.92908126    -0.05100
C1413       C  0.98053103  0.40472233  0.90843745    -0.02200
C1414       C  0.99981276  0.41071506  0.90204559     0.02800
C1415       C  0.02578654  0.41827436  0.95106759     0.37400
C1416       C  0.96507321  0.40216349  0.89354823     0.37400
C1417       C  0.00429923  0.41170335  0.88090339     0.35800
C1418       C  0.98816880  0.40460662  0.96428141     0.35800
N1419       N  0.00796977  0.41225410  0.86404613    -0.39000
N1420       N  0.98589755  0.40281888  0.98129800    -0.39000
N1421       N  0.95275161  0.40038453  0.88160467    -0.38400
N1422       N  0.03818130  0.42158350  0.96260203    -0.38400
C1423       C  0.06522054  0.47033497  0.91595275    -0.05100
C1424       C  0.08407185  0.47321793  0.92503818    -0.02200
C1425       C  0.09005704  0.49240673  0.93166461     0.02800
C1426       C  0.07735523  0.50903793  0.92937668    -0.05100
C1427       C  0.05861168  0.50629060  0.92020398    -0.02200
C1428       C  0.05263665  0.48713540  0.91339960     0.02800
C1429       C  0.09723343  0.45634879  0.92805678     0.37400
C1430       C  0.04551826  0.52328320  0.91758967     0.37400
C1431       C  0.03388497  0.48493948  0.90289508     0.35800
C1432       C  0.10932237  0.49506473  0.94107345     0.35800
N1433       N  0.01899814  0.48320108  0.89436853    -0.39000
N1434       N  0.12466765  0.49727727  0.94861100    -0.39000
N1435       N  0.03506180  0.53684753  0.91553585    -0.38400
N1436       N  0.10776415  0.44289822  0.93044386    -0.38400
C1437       C  0.06821002  0.57561442  0.02044868    -0.05100
C1438       C  0.06794534  0.58859091  0.00385686    -0.02200
C1439       C  0.07367515  0.58175496  0.98460772     0.05200
C1440       C  0.08031186  0.56186546  0.98164668    -0.05100
C1441       C  0.08101888  0.54902932  0.99850849    -0.02200
C1442       C  0.07485213  0.55581517  0.01764644     0.02800
C1443       C  0.06140198  0.60902014  0.00657671     0.37400
C1444       C  0.08873255  0.52893296  0.99642613     0.37400
C1445       C  0.07571931  0.54248924  0.03465866     0.35800
C1446       C  0.07179664  0.59506373  0.96769092     0.35800
N1447       N  0.07641738  0.53192202  0.04828194    -0.39000
N1448       N  0.07018295  0.60567185  0.95418032    -0.39000
N1449       N  0.09493610  0.51290551  0.99483697    -0.38400
N1450       N  0.05621831  0.62532398  0.00884279    -0.38400
C1451       C  0.01683484  0.57824793  0.07383707    -0.05100
C1452       C  0.99956315  0.58338545  0.06280364    -0.02200
C1453       C  0.98045359  0.57632687  0.06860771     0.02800
C1454       C  0.97814137  0.56429285  0.08576160    -0.05100
C1455       C  0.99522469  0.55985899  0.09729857    -0.02200
C1456       C  0.01442472  0.56659491  0.09129593     0.02800
C1457       C  0.00137879  0.59647192  0.04569760     0.37400
C1458       C  0.99300248  0.54831365  0.11542513     0.37400
C1459       C  0.03181882  0.56085087  0.10271340     0.35800
C1460       C  0.96306896  0.58141270  0.05683756     0.35800
N1461       N  0.04572715  0.55619030  0.11177573    -0.39000
N1462       N  0.94916118  0.58542865  0.04746874    -0.39000
N1463       N  0.99113969  0.53920304  0.12995812    -0.38400
N1464       N  0.00283727  0.60706183  0.03215508    -0.38400
C1465       C  0.41950725  0.90860427  0.02396822    -0.05100
C1466       C  0.40651705  0.92517878  0.02308585    -0.02200
C1467       C  0.39834264  0.93146733  0.00457947     0.02800
C1468       C  0.40335283  0.92147993  0.98664754    -0.05100
C1469       C  0.41612339  0.90473130  0.98761953    -0.02200
C1470       C  0.42390004  0.89818257  0.00616769     0.02800
C1471       C  0.40149883  0.93572295  0.04129085     0.37400
C1472       C  0.42188942  0.89465601  0.96936852     0.37400
C1473       C  0.43641996  0.88059380  0.00696383     0.35800
C1474       C  0.38429590  0.94788137  0.00406812     0.35800
N1475       N  0.44629135  0.86646568  0.00764474    -0.39000
N1476       N  0.37295483  0.96087348  0.00368277    -0.39000
N1477       N  0.42654482  0.88676801  0.95473364    -0.38400
N1478       N  0.39751218  0.94412201  0.05584164    -0.38400
C1479       C  0.51574168  0.92352683  0.08354179    -0.05100
C1480       C  0.50119203  0.91929222  0.09819672    -0.02200
C1481       C  0.48166545  0.91311466  0.09271189     0.02800
C1482       C  0.47613336  0.91101780  0.07231222    -0.05100
C1483       C  0.49068270  0.91589818  0.05763610    -0.02200
C1484       C  0.51024074  0.92186295  0.06322581     0.02800
C1485       C  0.50610821  0.92200070  0.11909616     0.37400
C1486       C  0.48591565  0.91444302  0.03657104     0.37400
C1487       C  0.52505277  0.92546282  0.04789131     0.35800
C1488       C  0.46709729  0.90972748  0.10831534     0.35800
N1489       N  0.53687675  0.92820490  0.03564088    -0.39000
N1490       N  0.45554244  0.90706900  0.12084132    -0.39000
N1491       N  0.48213551  0.91348290  0.01974827    -0.38400
N1492       N  0.51003507  0.92424503  0.13575774    -0.38400
C1493       C  0.40261759  0.97299448  0.93354393    -0.05100
C1494       C  0.42316640  0.97584994  0.92997841    -0.02200
C1495       C  0.43063262  0.99460111  0.92346412     0.02800
C1496       C  0.41770276  0.01120909  0.92076823    -0.05100
C1497       C  0.39702767  0.00821235  0.92456081    -0.02200
C1498       C  0.38956884  0.98918714  0.93029790     0.02800
C1499       C  0.43663537  0.95908443  0.93230606     0.37400
C1500       C  0.38333204  0.02491151  0.92369570     0.37400
C1501       C  0.36834974  0.98633160  0.93312718     0.35800
C1502       C  0.45168713  0.99638238  0.91906265     0.35800
N1503       N  0.35140302  0.98398273  0.93519124    -0.39000
N1504       N  0.46853027  0.99759676  0.91563150    -0.39000
N1505       N  0.37237193  0.03822535  0.92320857    -0.38400
N1506       N  0.44725734  0.94561268  0.93410393    -0.38400
C1507       C  0.51173512  0.07528257  0.92748915    -0.05100
C1508       C  0.50823422  0.06114199  0.91219099    -0.02200
C1509       C  0.48856426  0.05477961  0.90751751     0.02800
C1510       C  0.47190786  0.06278010  0.91767582    -0.05100
C1511       C  0.47530327  0.07750501  0.93245280    -0.02200
C1512       C  0.49503717  0.08356319  0.93744637     0.02800
C1513       C  0.52496669  0.05308028  0.90118445     0.37400
C1514       C  0.45843112  0.08650321  0.94250242     0.37400
C1515       C  0.49813208  0.09888610  0.95239266     0.35800
C1516       C  0.48539381  0.04017498  0.89189119     0.35800
N1517       N  0.50060049  0.11121713  0.96422837    -0.39000
N1518       N  0.48276751  0.02854190  0.87940577    -0.39000
N1519       N  0.44495189  0.09374834  0.95045999    -0.38400
N1520       N  0.53834401  0.04677429  0.89231706    -0.38400
C1521       C  0.58636700  0.01040927  0.06681933    -0.05100
C1522       C  0.59615986  0.99243937  0.06174361    -0.02200
C1523       C  0.58866679  0.97380389  0.06844406     0.02800
C1524       C  0.57114623  0.97288785  0.08016883    -0.05100
C1525       C  0.56155274  0.99092969  0.08545474    -0.02200
C1526       C  0.56919578  0.00953709  0.07895239     0.02800
C1527       C  0.61407628  0.99317160  0.04970259     0.37400
C1528       C  0.54407808  0.99038643  0.09813972     0.37400
C1529       C  0.55950057  0.02789701  0.08496221     0.35800
C1530       C  0.59876229  0.95552093  0.06285630     0.35800
N1531       N  0.55186269  0.04257857  0.08984968    -0.39000
N1532       N  0.60683372  0.94093837  0.05837805    -0.39000
N1533       N  0.53016097  0.98986351  0.10830108    -0.38400
N1534       N  0.62841425  0.99381118  0.04015060    -0.38400
C1535       C  0.58576020  0.06143099  0.01308102    -0.05100
C1536       C  0.58186787  0.08189498  0.00910167    -0.02200
C1537       C  0.57392399  0.08805266  0.99040343     0.02800
C1538       C  0.56871664  0.07393121  0.97561037    -0.05100
C1539       C  0.57285757  0.05360618  0.97929520    -0.02200
C1540       C  0.58165312  0.04744340  0.99759422     0.02800
C1541       C  0.58529168  0.09677547  0.02441912     0.37400
C1542       C  0.56881309  0.03902156  0.96381824     0.37400
C1543       C  0.58729728  0.02668660  0.99993929     0.35800
C1544       C  0.57095485  0.10909091  0.98640013     0.35800
N1545       N  0.59189513  0.01014642  0.00172222    -0.39000
N1546       N  0.56875229  0.12587654  0.98307022    -0.39000
N1547       N  0.56566050  0.02739506  0.95144501    -0.38400
N1548       N  0.58793922  0.10871090  0.03661633    -0.38400
C1549       C  0.52229162  0.57107880  0.42435306    -0.05100
C1550       C  0.50743568  0.55732548  0.43074335    -0.02200
C1551       C  0.48862208  0.56409665  0.43759529     0.02800
C1552       C  0.48373088  0.58462240  0.43731765    -0.05100
C1553       C  0.49867546  0.59842826  0.43198050    -0.02200
C1554       C  0.51781901  0.59180657  0.42582486     0.02800
C1555       C  0.51093628  0.53598666  0.42981796     0.37400
C1556       C  0.49472290  0.61960650  0.43402034     0.37400
C1557       C  0.53307516  0.60659788  0.42189233     0.35800
C1558       C  0.47419856  0.54971319  0.44489109     0.35800
N1559       N  0.54518212  0.61850156  0.41888291    -0.39000
N1560       N  0.46283727  0.53827361  0.45100541    -0.39000
N1561       N  0.49161070  0.63648338  0.43586290    -0.38400
N1562       N  0.51357159  0.51893876  0.42916001    -0.38400
C1563       C  0.57477168  0.51856061  0.41922758    -0.05100
C1564       C  0.57878565  0.51407272  0.43944867    -0.02200
C1565       C  0.58544389  0.49479962  0.44517700     0.02800
C1566       C  0.58776402  0.47933578  0.43084776    -0.05100
C1567       C  0.58421385  0.48406429  0.41048589    -0.02200
C1568       C  0.57756183  0.50338965  0.40481475     0.02800
C1569       C  0.57632609  0.52945788  0.45447722     0.37400
C1570       C  0.58696119  0.46900495  0.39519769     0.37400
C1571       C  0.57241324  0.50731348  0.38417397     0.35800
C1572       C  0.59084307  0.49128508  0.46583631     0.35800
N1573       N  0.56809724  0.51041993  0.36775358    -0.39000
N1574       N  0.59528639  0.48852912  0.48228798    -0.39000
N1575       N  0.58932417  0.45710470  0.38290677    -0.38400
N1576       N  0.57430671  0.54170753  0.46648029    -0.38400
C1577       C  0.56566661  0.40921647  0.51698053    -0.05100
C1578       C  0.55305439  0.41381504  0.50050233    -0.02200
C1579       C  0.56105002  0.42126852  0.48233112     0.02800
C1580       C  0.58179055  0.42386688  0.47991357    -0.05100
C1581       C  0.59440225  0.41947026  0.49619917    -0.02200
C1582       C  0.58647922  0.41250928  0.51459395     0.02800
C1583       C  0.53173798  0.41057928  0.50182816     0.37400
C1584       C  0.61563123  0.42297419  0.49429654     0.37400
C1585       C  0.59989127  0.40983106  0.53133819     0.35800
C1586       C  0.54783884  0.42597715  0.46586320     0.35800
N1587       N  0.61065078  0.40783254  0.54467804    -0.39000
N1588       N  0.53730639  0.42978716  0.45274138    -0.39000
N1589       N  0.63255128  0.42584328  0.49275040    -0.38400
N1590       N  0.51470800  0.40810809  0.50280187    -0.38400
C1591       C  0.41171430  0.56693564  0.52131229    -0.05100
C1592       C  0.39968396  0.56825489  0.50409890    -0.02200
C1593       C  0.40748708  0.57604957  0.48608858     0.02800
C1594       C  0.42746513  0.58291319  0.48513011    -0.05100
C1595       C  0.43928477  0.58204319  0.50268514    -0.02200
C1596       C  0.43152844  0.57382941  0.52051591     0.02800
C1597       C  0.37931434  0.56108609  0.50481354     0.37400
C1598       C  0.45921371  0.59039084  0.50279743     0.37400
C1599       C  0.44386686  0.57277529  0.53825085     0.35800
C1600       C  0.39497372  0.57635772  0.46845024     0.35800
N1601       N  0.45368047  0.57188390  0.55241423    -0.39000
N1602       N  0.38492127  0.57661242  0.45442593    -0.39000
N1603       N  0.47507524  0.59713470  0.50295811    -0.38400
N1604       N  0.36308002  0.55533523  0.50540422    -0.38400
C1605       C  0.47239514  0.42089659  0.58126241    -0.05100
C1606       C  0.48667841  0.43454127  0.57342447    -0.02200
C1607       C  0.50537109  0.42779533  0.56623720     0.02800
C1608       C  0.51070113  0.40742182  0.56732089    -0.05100
C1609       C  0.49665643  0.39376233  0.57515431    -0.02200
C1610       C  0.47756037  0.40029426  0.58151531     0.02800
C1611       C  0.48274857  0.45582558  0.57315503     0.37400
C1612       C  0.50161806  0.37272154  0.57633963     0.37400
C1613       C  0.46307109  0.38540410  0.58751079     0.35800
C1614       C  0.51951255  0.44218129  0.55841121     0.35800
N1615       N  0.45158228  0.37340754  0.59214718    -0.39000
N1616       N  0.53075698  0.45362645  0.55209767    -0.39000
N1617       N  0.50555437  0.35595553  0.57747407    -0.38400
N1618       N  0.47977600  0.47282622  0.57282999    -0.38400
C1619       C  0.41954404  0.47297502  0.58378223    -0.05100
C1620       C  0.41696020  0.47713872  0.56326123    -0.02200
C1621       C  0.41070593  0.49630853  0.55677482     0.02800
C1622       C  0.40688213  0.51186153  0.57073972    -0.05100
C1623       C  0.40956653  0.50757447  0.59132939    -0.02200
C1624       C  0.41591660  0.48839569  0.59772142     0.02800
C1625       C  0.42048374  0.46150395  0.54868837     0.37400
C1626       C  0.40680159  0.52313727  0.60610548     0.37400
C1627       C  0.41994165  0.48491524  0.61869158     0.35800
C1628       C  0.40794381  0.49970241  0.53557513     0.35800
N1629       N  0.42333157  0.48217484  0.63539211    -0.39000
N1630       N  0.40589315  0.50231490  0.51863183    -0.39000
N1631       N  0.40460096  0.53552774  0.61793160    -0.38400
N1632       N  0.42332820  0.44902642  0.53709232    -0.38400
loop_ 
_geom_bond_atom_site_label_1 
_geom_bond_atom_site_label_2 
_geom_bond_distance 
_geom_bond_site_symmetry_2 
_ccdc_geom_bond_type 
C1            N2   1.363       .  A
C1            N6   1.366       .  A
C1         C1605   1.523       .  S
N2            C3   1.361       .  A
C3            N4   1.365       .  A
C3         C1619   1.507       .  S
N4            C5   1.366       .  A
C5            N6   1.364       .  A
C5          C806   1.494       .  S
C7            N8   1.364       .  A
C7           N12   1.370       .  A
C7         C1622   1.520       .  S
N8            C9   1.361       .  A
C9           N10   1.359       .  A
C9         C1591   1.492       .  S
N10          C11   1.360       .  A
C11          N12   1.368       .  A
C11         C950   1.491       .  S
C13          N14   1.367       .  A
C13          N18   1.365       .  A
C13        C1577   1.525       .  S
N14          C15   1.367       .  A
C15          N16   1.361       .  A
C15         C614   1.491       .  S
N16          C17   1.362       .  A
C17          N18   1.365       .  A
C17        C1608   1.508       .  S
C19          N20   1.366       .  A
C19          N24   1.367       .  A
C19        C1566   1.519       .  S
N20          C21   1.363       .  A
C21          N22   1.366       .  A
C21        C1580   1.508       .  S
N22          C23   1.366       .  A
C23          N24   1.367       .  A
C23         C398   1.498       .  S
C25          N26   1.363       .  A
C25          N30   1.367       .  A
C25        C1563   1.509       .  S
N26          C27   1.365       .  A
C27          N28   1.365       .  A
C27        C1549   1.522       .  S
N28          C29   1.364       .  A
C29          N30   1.366       .  A
C29         C230   1.495       .  S
C31          N32   1.368       .  A
C31          N36   1.361       .  A
C31        C1552   1.506       .  S
N32          C33   1.367       .  A
C33          N34   1.363       .  A
C33        C1190   1.492       .  S
N34          C35   1.362       .  A
C35          N36   1.360       .  A
C35        C1594   1.506       .  S
C37          N38   1.361       .  A
C37          N42   1.362       .  A
C37        C1521   1.500       .  S
N38          C39   1.365       .  A
C39          N40   1.372       .  A
C39        C1535   1.525       .  S
N40          C41   1.370       .  A
C41          N42   1.365       .  A
C41         C374   1.501       .  S
C43          N44   1.363       .  A
C43          N48   1.368       .  A
C43        C1538   1.510       .  S
N44          C45   1.364       .  A
C45          N46   1.369       .  A
C45         C542   1.499       .  S
N46          C47   1.370       .  A
C47          N48   1.368       .  A
C47        C1507   1.515       .  S
C49          N50   1.367       .  A
C49          N54   1.370       .  A
C49        C1496   1.527       .  S
N50          C51   1.365       .  A
C51          N52   1.366       .  A
C51         C782   1.499       .  S
N52          C53   1.366       .  A
C53          N54   1.368       .  A
C53        C1510   1.512       .  S
C55          N56   1.365       .  A
C55          N60   1.363       .  A
C55        C1524   1.504       .  S
N56          C57   1.365       .  A
C57          N58   1.367       .  A
C57        C1479   1.513       .  S
N58          C59   1.367       .  A
C59          N60   1.363       .  A
C59         C254   1.495       .  S
C61          N62   1.368       .  A
C61          N66   1.367       .  A
C61        C1482   1.526       .  S
N62          C63   1.366       .  A
C63          N64   1.363       .  A
C63        C1118   1.493       .  S
N64          C65   1.362       .  A
C65          N66   1.364       .  A
C65        C1465   1.501       .  S
C67          N68   1.364       .  A
C67          N72   1.368       .  A
C67        C1493   1.509       .  S
N68          C69   1.363       .  A
C69          N70   1.364       .  A
C69        C1468   1.503       .  S
N70          C71   1.365       .  A
C71          N72   1.369       .  A
C71         C926   1.497       .  S
C73          N74   1.362       .  A
C73          N78   1.363       .  A
C73        C1437   1.505       .  S
N74          C75   1.365       .  A
C75          N76   1.371       .  A
C75        C1142   1.502       .  S
N76          C77   1.372       .  A
C77          N78   1.366       .  A
C77        C1451   1.514       .  S
C79          N80   1.366       .  A
C79          N84   1.371       .  A
C79        C1440   1.518       .  S
N80          C81   1.363       .  A
C81          N82   1.361       .  A
C81        C1426   1.500       .  S
N82          C83   1.363       .  A
C83          N84   1.369       .  A
C83         C974   1.498       .  S
C85          N86   1.364       .  A
C85          N90   1.365       .  A
C85        C1409   1.507       .  S
N86          C87   1.365       .  A
C87          N88   1.364       .  A
C87         C734   1.491       .  S
N88          C89   1.365       .  A
C89          N90   1.365       .  A
C89        C1423   1.509       .  S
C91          N92   1.365       .  A
C91          N96   1.365       .  A
C91        C1454   1.509       .  S
N92          C93   1.367       .  A
C93          N94   1.365       .  A
C93         C158   1.499       .  S
N94          C95   1.368       .  A
C95          N96   1.368       .  A
C95        C1398   1.514       .  S
C97          N98   1.364       .  A
C97         N102   1.365       .  A
C97        C1381   1.501       .  S
N98          C99   1.364       .  A
C99         N100   1.366       .  A
C99        C1395   1.503       .  S
N100        C101   1.366       .  A
C101        N102   1.365       .  A
C101        C422   1.496       .  S
C103        N104   1.364       .  A
C103        N108   1.369       .  A
C103       C1412   1.526       .  S
N104        C105   1.363       .  A
C105        N106   1.365       .  A
C105       C1384   1.501       .  S
N106        C107   1.365       .  A
C107        N108   1.368       .  A
C107        C566   1.499       .  S
C109        N110   1.369       .  A
C109        N114   1.366       .  A
C109       C1353   1.524       .  S
N110        C111   1.367       .  A
C111        N112   1.365       .  A
C111        C758   1.497       .  S
N112        C113   1.364       .  A
C113        N114   1.363       .  A
C113       C1367   1.504       .  S
C115        N116   1.368       .  A
C115        N120   1.369       .  A
C115       C1339   1.520       .  S
N116        C117   1.367       .  A
C117        N118   1.364       .  A
C117       C1046   1.497       .  S
N118        C119   1.364       .  A
C119        N120   1.367       .  A
C119       C1370   1.508       .  S
C121        N122   1.368       .  A
C121        N126   1.374       .  A
C121       C1342   1.539       .  S
N122        C123   1.364       .  A
C123        N124   1.366       .  A
C123       C1328   1.516       .  S
N124        C125   1.367       .  A
C125        N126   1.372       .  A
C125       C1214   1.509       .  S
C127        N128   1.369       .  A
C127        N132   1.365       .  A
C127       C1356   1.510       .  S
N128        C129   1.369       .  A
C129        N130   1.361       .  A
C129        C638   1.494       .  S
N130        C131   1.362       .  A
C131        N132   1.364       .  A
C131       C1311   1.506       .  S
C133        N134   1.363       .  A
C133        N138   1.361       .  A
C133       C1314   1.496       .  S
N134        C135   1.365       .  A
C135        N136   1.367       .  A
C135       C1297   1.515       .  S
N136        C137   1.366       .  A
C137        N138   1.362       .  A
C137        C350   1.491       .  S
C139        N140   1.373       .  A
C139        N144   1.368       .  A
C139       C1325   1.529       .  S
N140        C141   1.370       .  A
C141        N142   1.362       .  A
C141        C206   1.500       .  S
N142        C143   1.361       .  A
C143        N144   1.365       .  A
C143       C1300   1.505       .  S
N145        C149   1.346       .  A
N145        N146   1.321       .  A
N145       Cu153   2.058       .  S
N146        C147   1.348       .  A
N146       Cu152   2.100       .  S
C147        C148   1.391       .  A
C147        H150   1.082       .  S
C148        C189   1.479       .  S
C148        C149   1.381       .  A
C149        H151   1.082       .  S
Cu152       N155   2.100       .  S
Cu153       N163   2.058       .  S
Cu154       N156   2.138       .  S
Cu154       N162   2.137       .  S
N155        C159   1.350       .  A
N155        N156   1.326       .  A
N156        C157   1.358       .  A
C157        C158   1.397       .  A
C157        H160   1.082       .  S
C158        C159   1.387       .  A
C159        H161   1.082       .  S
N162        C166   1.354       .  A
N162        N163   1.324       .  A
N163        C164   1.345       .  A
C164        C165   1.377       .  A
C164        H167   1.082       .  S
C165        C316   1.485       .  S
C165        C166   1.397       .  A
C166        H168   1.082       .  S
N169        C173   1.353       .  A
N169        N170   1.322       .  A
N169       Cu177   2.119       .  S
N170        C171   1.340       .  A
N170       Cu176   2.036       .  S
C171        C172   1.373       .  A
C171        H174   1.082       .  S
C172        C196   1.474       .  S
C172        C173   1.395       .  A
C173        H175   1.082       .  S
Cu176       N179   2.032       .  S
Cu177       N187   2.120       .  S
Cu178       N180   2.066       .  S
Cu178       N186   2.068       .  S
N179        C183   1.340       .  A
N179        N180   1.316       .  A
N180        C181   1.341       .  A
C181        C182   1.390       .  A
C181        H184   1.082       .  S
C182       C1262   1.467   1_655  S
C182        C183   1.380       .  A
C183        H185   1.082       .  S
N186        C190   1.344       .  A
N186        N187   1.326       .  A
N187        C188   1.352       .  A
C188        C189   1.391       .  A
C188        H191   1.082       .  S
C189        C190   1.378       .  A
C190        H192   1.082       .  S
N193        C197   1.344       .  A
N193        N194   1.322       .  A
N193       Cu201   2.045       .  S
N194        C195   1.350       .  A
N194       Cu200   2.115       .  S
C195        C196   1.393       .  A
C195        H198   1.082       .  S
C196        C197   1.375       .  A
C197        H199   1.082       .  S
Cu200       N203   2.116       .  S
Cu201       N211   2.049       .  S
Cu202       N204   2.130       .  S
Cu202       N210   2.130       .  S
N203        C207   1.356       .  A
N203        N204   1.326       .  A
N204        C205   1.353       .  A
C205        C206   1.393       .  A
C205        H208   1.082       .  S
C206        C207   1.391       .  A
C207        H209   1.082       .  S
N210        C214   1.353       .  A
N210        N211   1.322       .  A
N211        C212   1.345       .  A
C212        C213   1.377       .  A
C212        H215   1.082       .  S
C213        C309   1.484       .  S
C213        C214   1.397       .  A
C214        H216   1.082       .  S
N217        C221   1.344       .  A
N217        N218   1.323       .  A
N217       Cu225   2.061       .  S
N218        C219   1.353       .  A
N218       Cu224   2.118       .  S
C219        C220   1.394       .  A
C219        H222   1.082       .  S
C220        C268   1.482       .  S
C220        C221   1.379       .  A
C221        H223   1.082       .  S
Cu224       N227   2.119       .  S
Cu225       N235   2.059       .  S
Cu226       N228   2.114       .  S
Cu226       N234   2.114       .  S
N227        C231   1.352       .  A
N227        N228   1.326       .  A
N228        C229   1.354       .  A
C229        C230   1.390       .  A
C229        H232   1.082       .  S
C230        C231   1.391       .  A
C231        H233   1.082       .  S
N234        C238   1.350       .  A
N234        N235   1.322       .  A
N235        C236   1.346       .  A
C236        C237   1.379       .  A
C236        H239   1.082       .  S
C237        C333   1.479       .  S
C237        C238   1.393       .  A
C238        H240   1.082       .  S
N241        C245   1.346       .  A
N241        N242   1.322       .  A
N241       Cu249   2.062       .  S
N242        C243   1.347       .  A
N242       Cu248   2.098       .  S
C243        C244   1.389       .  A
C243        H246   1.082       .  S
C244        C285   1.473       .  S
C244        C245   1.380       .  A
C245        H247   1.082       .  S
Cu248       N251   2.097       .  S
Cu249       N259   2.062       .  S
Cu250       N252   2.126       .  S
Cu250       N258   2.127       .  S
N251        C255   1.352       .  A
N251        N252   1.324       .  A
N252        C253   1.354       .  A
C253        C254   1.394       .  A
C253        H256   1.082       .  S
C254        C255   1.388       .  A
C255        H257   1.082       .  S
N258        C262   1.350       .  A
N258        N259   1.323       .  A
N259        C260   1.348       .  A
C260        C261   1.380       .  A
C260        H263   1.082       .  S
C261        C292   1.483       .  S
C261        C262   1.396       .  A
C262        H264   1.082       .  S
N265        C269   1.349       .  A
N265        N266   1.325       .  A
N265       Cu273   2.114       .  S
N266        C267   1.348       .  A
N266       Cu272   2.080       .  S
C267        C268   1.382       .  A
C267        H270   1.082       .  S
C268        C269   1.390       .  A
C269        H271   1.082       .  S
Cu272       N275   2.078       .  S
Cu273       N283   2.113       .  S
Cu274       N276   2.041       .  S
Cu274       N282   2.044       .  S
N275        C279   1.343       .  A
N275        N276   1.318       .  A
N276        C277   1.341       .  A
C277        C278   1.381       .  A
C277        H280   1.082       .  S
C278       C1286   1.470       .  S
C278        C279   1.389       .  A
C279        H281   1.081       .  S
N282        C286   1.340       .  A
N282        N283   1.322       .  A
N283        C284   1.353       .  A
C284        C285   1.392       .  A
C284        H287   1.082       .  S
C285        C286   1.375       .  A
C286        H288   1.082       .  S
N289        C293   1.360       .  A
N289        N290   1.322       .  A
N289       Cu297   2.148       .  S
N290        C291   1.337       .  A
N290       Cu296   2.031       .  S
C291        C292   1.371       .  A
C291        H294   1.082       .  S
C292        C293   1.402       .  A
C293        H295   1.082       .  S
Cu296       N299   2.030       .  S
Cu297       N307   2.150       .  S
Cu298       N300   2.060       .  S
Cu298       N306   2.062       .  S
N299        C303   1.339       .  A
N299        N300   1.314       .  A
N300        C301   1.342       .  A
C301        C302   1.390       .  A
C301        H304   1.081       .  S
C302        C494   1.468       .  S
C302        C303   1.381       .  A
C303        H305   1.081       .  S
N306        C310   1.344       .  A
N306        N307   1.327       .  A
N307        C308   1.356       .  A
C308        C309   1.397       .  A
C308        H311   1.082       .  S
C309        C310   1.374       .  A
C310        H312   1.082       .  S
N313        C317   1.354       .  A
N313        N314   1.325       .  A
N313       Cu321   2.136       .  S
N314        C315   1.344       .  A
N314       Cu320   2.055       .  S
C315        C316   1.377       .  A
C315        H318   1.082       .  S
C316        C317   1.397       .  A
C317        H319   1.082       .  S
Cu320       N323   2.053       .  S
Cu321       N331   2.135       .  S
Cu322       N324   2.045       .  S
Cu322       N330   2.049       .  S
N323        C327   1.342       .  A
N323        N324   1.317       .  A
N324        C325   1.339       .  A
C325        C326   1.383       .  A
C325        H328   1.082       .  S
C326        C446   1.467       .  S
C326        C327   1.385       .  A
C327        H329   1.082       .  S
N330        C334   1.341       .  A
N330        N331   1.324       .  A
N331        C332   1.356       .  A
C332        C333   1.396       .  A
C332        H335   1.082       .  S
C333        C334   1.375       .  A
C334        H336   1.082       .  S
N337        C341   1.346       .  A
N337        N338   1.323       .  A
N337       Cu345   2.065       .  S
N338        C339   1.349       .  A
N338       Cu344   2.113       .  S
C339        C340   1.393       .  A
C339        H342   1.082       .  S
C340        C508   1.477       .  S
C340        C341   1.379       .  A
C341        H343   1.082       .  S
Cu344       N347   2.113       .  S
Cu345       N355   2.066       .  S
Cu346       N348   2.097       .  S
Cu346       N354   2.098       .  S
N347        C351   1.352       .  A
N347        N348   1.324       .  A
N348        C349   1.351       .  A
C349        C350   1.388       .  A
C349        H352   1.082       .  S
C350        C351   1.392       .  A
C351        H353   1.082       .  S
N354        C358   1.345       .  A
N354        N355   1.322       .  A
N355        C356   1.348       .  A
C356        C357   1.382       .  A
C356        H359   1.082       .  S
C357        C484   1.476       .  S
C357        C358   1.390       .  A
C358        H360   1.082       .  S
N361        C365   1.345       .  A
N361        N362   1.322       .  A
N361       Cu369   2.055       .  S
N362        C363   1.353       .  A
N362       Cu368   2.123       .  S
C363        C364   1.395       .  A
C363        H366   1.082       .  S
C364        C501   1.484       .  S
C364        C365   1.379       .  A
C365        H367   1.082       .  S
Cu368       N371   2.124       .  S
Cu369       N379   2.054       .  S
Cu370       N372   2.124       .  S
Cu370       N378   2.123       .  S
N371        C375   1.353       .  A
N371        N372   1.327       .  A
N372        C373   1.356       .  A
C373        C374   1.393       .  A
C373        H376   1.082       .  S
C374        C375   1.392       .  A
C375        H377   1.082       .  S
N378        C382   1.352       .  A
N378        N379   1.323       .  A
N379        C380   1.345       .  A
C380        C381   1.378       .  A
C380        H383   1.082       .  S
C381        C477   1.483       .  S
C381        C382   1.395       .  A
C382        H384   1.082       .  S
N385        C389   1.343       .  A
N385        N386   1.322       .  A
N385       Cu393   2.050       .  S
N386        C387   1.353       .  A
N386       Cu392   2.119       .  S
C387        C388   1.396       .  A
C387        H390   1.082       .  S
C388        C453   1.480       .  S
C388        C389   1.376       .  A
C389        H391   1.082       .  S
Cu392       N395   2.120       .  S
Cu393       N403   2.052       .  S
Cu394       N396   2.126       .  S
Cu394       N402   2.124       .  S
N395        C399   1.353       .  A
N395        N396   1.327       .  A
N396        C397   1.354       .  A
C397        C398   1.392       .  A
C397        H400   1.082       .  S
C398        C399   1.391       .  A
C399        H401   1.082       .  S
N402        C406   1.353       .  A
N402        N403   1.322       .  A
N403        C404   1.344       .  A
C404        C405   1.379       .  A
C404        H407   1.082       .  S
C405        C525   1.484       .  S
C405        C406   1.396       .  A
C406        H408   1.082       .  S
N409        C413   1.350       .  A
N409        N410   1.324       .  A
N409       Cu417   2.072       .  S
N410        C411   1.347       .  A
N410       Cu416   2.113       .  S
C411        C412   1.390       .  A
C411        H414   1.082       .  S
C412        C460   1.481       .  S
C412        C413   1.382       .  A
C413        H415   1.082       .  S
Cu416       N419   2.113       .  S
Cu417       N427   2.071       .  S
Cu418       N420   2.107       .  S
Cu418       N426   2.107       .  S
N419        C423   1.353       .  A
N419        N420   1.323       .  A
N420        C421   1.352       .  A
C421        C422   1.391       .  A
C421        H424   1.082       .  S
C422        C423   1.393       .  A
C423        H425   1.082       .  S
N426        C430   1.346       .  A
N426        N427   1.323       .  A
N427        C428   1.348       .  A
C428        C429   1.383       .  A
C428        H431   1.082       .  S
C429        C436   1.479       .  S
C429        C430   1.390       .  A
C430        H432   1.082       .  S
N433        C437   1.356       .  A
N433        N434   1.323       .  A
N433       Cu441   2.126       .  S
N434        C435   1.339       .  A
N434       Cu440   2.049       .  S
C435        C436   1.375       .  A
C435        H438   1.082       .  S
C436        C437   1.396       .  A
C437        H439   1.082       .  S
Cu440       N443   2.052       .  S
Cu441       N451   2.126       .  S
Cu442       N444   2.051       .  S
Cu442       N450   2.053       .  S
N443        C447   1.342       .  A
N443        N444   1.317       .  A
N444        C445   1.341       .  A
C445        C446   1.384       .  A
C445        H448   1.082       .  S
C446        C447   1.385       .  A
C447        H449   1.082       .  S
N450        C454   1.344       .  A
N450        N451   1.324       .  A
N451        C452   1.352       .  A
C452        C453   1.394       .  A
C452        H455   1.082       .  S
C453        C454   1.376       .  A
C454        H456   1.082       .  S
N457        C461   1.357       .  A
N457        N458   1.323       .  A
N457       Cu465   2.131       .  S
N458        C459   1.339       .  A
N458       Cu464   2.047       .  S
C459        C460   1.374       .  A
C459        H462   1.082       .  S
C460        C461   1.397       .  A
C461        H463   1.082       .  S
Cu464       N467   2.045       .  S
Cu465       N475   2.133       .  S
Cu466       N468   2.056       .  S
Cu466       N474   2.059       .  S
N467        C471   1.341       .  A
N467        N468   1.317       .  A
N468        C469   1.342       .  A
C469        C470   1.386       .  A
C469        H472   1.081       .  S
C470        C590   1.466   1_554  S
C470        C471   1.382       .  A
C471        H473   1.081       .  S
N474        C478   1.344       .  A
N474        N475   1.326       .  A
N475        C476   1.353       .  A
C476        C477   1.395       .  A
C476        H479   1.082       .  S
C477        C478   1.377       .  A
C478        H480   1.082       .  S
N481        C485   1.356       .  A
N481        N482   1.322       .  A
N481       Cu489   2.127       .  S
N482        C483   1.337       .  A
N482       Cu488   2.033       .  S
C483        C484   1.373       .  A
C483        H486   1.082       .  S
C484        C485   1.397       .  A
C485        H487   1.082       .  S
Cu488       N491   2.032       .  S
Cu489       N499   2.130       .  S
Cu490       N492   2.069       .  S
Cu490       N498   2.072       .  S
N491        C495   1.338       .  A
N491        N492   1.316       .  A
N492        C493   1.343       .  A
C493        C494   1.390   1_545  A
C493        H496   1.082       .  S
C494        C495   1.381   1_565  A
C495        H497   1.082       .  S
N498        C502   1.346       .  A
N498        N499   1.327       .  A
N499        C500   1.352       .  A
C500        C501   1.393       .  A
C500        H503   1.082       .  S
C501        C502   1.379       .  A
C502        H504   1.082       .  S
N505        C509   1.355       .  A
N505        N506   1.322       .  A
N505       Cu513   2.128       .  S
N506        C507   1.339       .  A
N506       Cu512   2.040       .  S
C507        C508   1.374       .  A
C507        H510   1.082       .  S
C508        C509   1.397       .  A
C509        H511   1.082       .  S
Cu512       N515   2.036       .  S
Cu513       N523   2.130       .  S
Cu514       N516   2.069       .  S
Cu514       N522   2.071       .  S
N515        C519   1.339       .  A
N515        N516   1.316       .  A
N516        C517   1.343       .  A
C517        C518   1.392       .  A
C517        H520   1.081       .  S
C518        C662   1.472       .  S
C518        C519   1.383       .  A
C519        H521   1.081       .  S
N522        C526   1.346       .  A
N522        N523   1.326       .  A
N523        C524   1.353       .  A
C524        C525   1.394       .  A
C524        H527   1.082       .  S
C525        C526   1.379       .  A
C526        H528   1.082       .  S
N529        C533   1.345       .  A
N529        N530   1.323       .  A
N529       Cu537   2.051       .  S
N530        C531   1.351       .  A
N530       Cu536   2.124       .  S
C531        C532   1.393       .  A
C531        H534   1.082       .  S
C532        C700   1.479       .  S
C532        C533   1.377       .  A
C533        H535   1.082       .  S
Cu536       N539   2.123       .  S
Cu537       N547   2.048       .  S
Cu538       N540   2.118       .  S
Cu538       N546   2.118       .  S
N539        C543   1.356       .  A
N539        N540   1.326       .  A
N540        C541   1.352       .  A
C541        C542   1.392       .  A
C541        H544   1.082       .  S
C542        C543   1.393       .  A
C543        H545   1.082       .  S
N546        C550   1.349       .  A
N546        N547   1.322       .  A
N547        C548   1.346       .  A
C548        C549   1.378       .  A
C548        H551   1.082       .  S
C549        C597   1.481       .  S
C549        C550   1.395       .  A
C550        H552   1.082       .  S
N553        C557   1.348       .  A
N553        N554   1.323       .  A
N553       Cu561   2.066       .  S
N554        C555   1.353       .  A
N554       Cu560   2.134       .  S
C555        C556   1.396       .  A
C555        H558   1.082       .  S
C556        C580   1.489       .  S
C556        C557   1.381       .  A
C557        H559   1.082       .  S
Cu560       N563   2.135       .  S
Cu561       N571   2.066       .  S
Cu562       N564   2.109       .  S
Cu562       N570   2.108       .  S
N563        C567   1.356       .  A
N563        N564   1.327       .  A
N564        C565   1.352       .  A
C565        C566   1.389       .  A
C565        H568   1.082       .  S
C566        C567   1.395       .  A
C567        H569   1.082       .  S
N570        C574   1.352       .  A
N570        N571   1.323       .  A
N571        C572   1.344       .  A
C572        C573   1.380       .  A
C572        H575   1.082       .  S
C573        C676   1.479       .  S
C573        C574   1.391       .  A
C574        H576   1.082       .  S
N577        C581   1.356       .  A
N577        N578   1.326       .  A
N577       Cu585   2.141       .  S
N578        C579   1.345       .  A
N578       Cu584   2.067       .  S
C579        C580   1.378       .  A
C579        H582   1.082       .  S
C580        C581   1.397       .  A
C581        H583   1.082       .  S
Cu584       N587   2.065       .  S
Cu585       N595   2.139       .  S
Cu586       N588   2.041       .  S
Cu586       N594   2.040       .  S
N587        C591   1.343       .  A
N587        N588   1.317       .  A
N588        C589   1.340       .  A
C589        C590   1.382       .  A
C589        H592   1.081       .  S
C590        C591   1.387       .  A
C591        H593   1.081       .  S
N594        C598   1.340       .  A
N594        N595   1.323       .  A
N595        C596   1.356       .  A
C596        C597   1.398       .  A
C596        H599   1.082       .  S
C597        C598   1.374       .  A
C598        H600   1.082       .  S
N601        C605   1.346       .  A
N601        N602   1.324       .  A
N601       Cu609   2.061       .  S
N602        C603   1.351       .  A
N602       Cu608   2.123       .  S
C603        C604   1.394       .  A
C603        H606   1.082       .  S
C604        C717   1.479       .  S
C604        C605   1.378       .  A
C605        H607   1.082       .  S
Cu608       N611   2.122       .  S
Cu609       N619   2.063       .  S
Cu610       N612   2.088       .  S
Cu610       N618   2.088       .  S
N611        C615   1.354       .  A
N611        N612   1.324       .  A
N612        C613   1.349       .  A
C613        C614   1.385       .  A
C613        H616   1.082       .  S
C614        C615   1.394       .  A
C615        H617   1.082       .  S
N618        C622   1.345       .  A
N618        N619   1.321       .  A
N619        C620   1.347       .  A
C620        C621   1.382       .  A
C620        H623   1.082       .  S
C621        C669   1.474       .  S
C621        C622   1.388       .  A
C622        H624   1.082       .  S
N625        C629   1.345       .  A
N625        N626   1.321       .  A
N625       Cu633   2.061       .  S
N626        C627   1.347       .  A
N626       Cu632   2.095       .  S
C627        C628   1.388       .  A
C627        H630   1.082       .  S
C628        C693   1.471       .  S
C628        C629   1.380       .  A
C629        H631   1.082       .  S
Cu632       N635   2.096       .  S
Cu633       N643   2.063       .  S
Cu634       N636   2.132       .  S
Cu634       N642   2.130       .  S
N635        C639   1.351       .  A
N635        N636   1.326       .  A
N636        C637   1.354       .  A
C637        C638   1.395       .  A
C637        H640   1.082       .  S
C638        C639   1.386       .  A
C639        H641   1.082       .  S
N642        C646   1.355       .  A
N642        N643   1.324       .  A
N643        C644   1.345       .  A
C644        C645   1.379       .  A
C644        H647   1.082       .  S
C645        C652   1.486       .  S
C645        C646   1.396       .  A
C646        H648   1.082       .  S
N649        C653   1.350       .  A
N649        N650   1.326       .  A
N649       Cu657   2.121       .  S
N650        C651   1.349       .  A
N650       Cu656   2.081       .  S
C651        C652   1.382       .  A
C651        H654   1.082       .  S
C652        C653   1.392       .  A
C653        H655   1.082       .  S
Cu656       N659   2.078       .  S
Cu657       N667   2.118       .  S
Cu658       N660   2.037       .  S
Cu658       N666   2.038       .  S
N659        C663   1.343       .  A
N659        N660   1.317       .  A
N660        C661   1.339       .  A
C661        C662   1.382       .  A
C661        H664   1.081       .  S
C662        C663   1.392       .  A
C663        H665   1.081       .  S
N666        C670   1.339       .  A
N666        N667   1.322       .  A
N667        C668   1.354       .  A
C668        C669   1.394       .  A
C668        H671   1.082       .  S
C669        C670   1.375       .  A
C670        H672   1.082       .  S
N673        C677   1.349       .  A
N673        N674   1.324       .  A
N673       Cu681   2.109       .  S
N674        C675   1.347       .  A
N674       Cu680   2.070       .  S
C675        C676   1.381       .  A
C675        H678   1.082       .  S
C676        C677   1.389       .  A
C677        H679   1.082       .  S
Cu680       N683   2.067       .  S
Cu681       N691   2.109       .  S
Cu682       N684   2.049       .  S
Cu682       N690   2.052       .  S
N683        C687   1.341       .  A
N683        N684   1.318       .  A
N684        C685   1.342       .  A
C685        C686   1.383       .  A
C685        H688   1.082       .  S
C686        C878   1.470   1_655  S
C686        C687   1.387       .  A
C687        H689   1.081       .  S
N690        C694   1.341       .  A
N690        N691   1.323       .  A
N691        C692   1.352       .  A
C692        C693   1.390       .  A
C692        H695   1.082       .  S
C693        C694   1.376       .  A
C694        H696   1.082       .  S
N697        C701   1.355       .  A
N697        N698   1.326       .  A
N697       Cu705   2.134       .  S
N698        C699   1.343       .  A
N698       Cu704   2.058       .  S
C699        C700   1.374       .  A
C699        H702   1.082       .  S
C700        C701   1.395       .  A
C701        H703   1.082       .  S
Cu704       N707   2.056       .  S
Cu705       N715   2.134       .  S
Cu706       N708   2.038       .  S
Cu706       N714   2.042       .  S
N707        C711   1.341       .  A
N707        N708   1.316       .  A
N708        C709   1.340       .  A
C709        C710   1.382       .  A
C709        H712   1.081       .  S
C710        C830   1.468       .  S
C710        C711   1.388       .  A
C711        H713   1.081       .  S
N714        C718   1.340       .  A
N714        N715   1.323       .  A
N715        C716   1.356       .  A
C716        C717   1.397       .  A
C716        H719   1.082       .  S
C717        C718   1.374       .  A
C718        H720   1.082       .  S
N721        C725   1.345       .  A
N721        N722   1.323       .  A
N721       Cu729   2.063       .  S
N722        C723   1.349       .  A
N722       Cu728   2.111       .  S
C723        C724   1.391       .  A
C723        H726   1.082       .  S
C724        C909   1.473       .  S
C724        C725   1.379       .  A
C725        H727   1.082       .  S
Cu728       N731   2.111       .  S
Cu729       N739   2.063       .  S
Cu730       N732   2.097       .  S
Cu730       N738   2.097       .  S
N731        C735   1.353       .  A
N731        N732   1.324       .  A
N732        C733   1.350       .  A
C733        C734   1.388       .  A
C733        H736   1.082       .  S
C734        C735   1.392       .  A
C735        H737   1.082       .  S
N738        C742   1.346       .  A
N738        N739   1.322       .  A
N739        C740   1.347       .  A
C740        C741   1.381       .  A
C740        H743   1.082       .  S
C741        C885   1.475       .  S
C741        C742   1.389       .  A
C742        H744   1.082       .  S
N745        C749   1.345       .  A
N745        N746   1.321       .  A
N745       Cu753   2.050       .  S
N746        C747   1.349       .  A
N746       Cu752   2.114       .  S
C747        C748   1.394       .  A
C747        H750   1.082       .  S
C748        C861   1.475       .  S
C748        C749   1.378       .  A
C749        H751   1.082       .  S
Cu752       N755   2.115       .  S
Cu753       N763   2.052       .  S
Cu754       N756   2.118       .  S
Cu754       N762   2.117       .  S
N755        C759   1.352       .  A
N755        N756   1.326       .  A
N756        C757   1.354       .  A
C757        C758   1.392       .  A
C757        H760   1.082       .  S
C758        C759   1.391       .  A
C759        H761   1.082       .  S
N762        C766   1.352       .  A
N762        N763   1.323       .  A
N763        C764   1.343       .  A
C764        C765   1.377       .  A
C764        H767   1.082       .  S
C765        C868   1.477       .  S
C765        C766   1.392       .  A
C766        H768   1.082       .  S
N769        C773   1.346       .  A
N769        N770   1.321       .  A
N769       Cu777   2.050       .  S
N770        C771   1.350       .  A
N770       Cu776   2.120       .  S
C771        C772   1.395       .  A
C771        H774   1.082       .  S
C772        C820   1.478       .  S
C772        C773   1.378       .  A
C773        H775   1.082       .  S
Cu776       N779   2.121       .  S
Cu777       N787   2.052       .  S
Cu778       N780   2.122       .  S
Cu778       N786   2.121       .  S
N779        C783   1.354       .  A
N779        N780   1.327       .  A
N780        C781   1.354       .  A
C781        C782   1.392       .  A
C781        H784   1.082       .  S
C782        C783   1.391       .  A
C783        H785   1.082       .  S
N786        C790   1.353       .  A
N786        N787   1.323       .  A
N787        C788   1.343       .  A
C788        C789   1.377       .  A
C788        H791   1.082       .  S
C789        C844   1.480       .  S
C789        C790   1.394       .  A
C790        H792   1.082       .  S
N793        C797   1.344       .  A
N793        N794   1.321       .  A
N793       Cu801   2.054       .  S
N794        C795   1.349       .  A
N794       Cu800   2.101       .  S
C795        C796   1.391       .  A
C795        H798   1.082       .  S
C796        C892   1.477       .  S
C796        C797   1.379       .  A
C797        H799   1.082       .  S
Cu800       N803   2.102       .  S
Cu801       N811   2.055       .  S
Cu802       N804   2.126       .  S
Cu802       N810   2.126       .  S
N803        C807   1.351       .  A
N803        N804   1.326       .  A
N804        C805   1.354       .  A
C805        C806   1.393       .  A
C805        H808   1.082       .  S
C806        C807   1.387       .  A
C807        H809   1.082       .  S
N810        C814   1.354       .  A
N810        N811   1.323       .  A
N811        C812   1.344       .  A
C812        C813   1.378       .  A
C812        H815   1.082       .  S
C813        C837   1.484       .  S
C813        C814   1.396       .  A
C814        H816   1.082       .  S
N817        C821   1.357       .  A
N817        N818   1.321       .  A
N817       Cu825   2.132       .  S
N818        C819   1.338       .  A
N818       Cu824   2.031       .  S
C819        C820   1.372       .  A
C819        H822   1.082       .  S
C820        C821   1.399       .  A
C821        H823   1.082       .  S
Cu824       N827   2.032       .  S
Cu825       N835   2.134       .  S
Cu826       N828   2.068       .  S
Cu826       N834   2.071       .  S
N827        C831   1.338       .  A
N827        N828   1.316       .  A
N828        C829   1.344       .  A
C829        C830   1.390       .  A
C829        H832   1.081       .  S
C830        C831   1.381       .  A
C831        H833   1.081       .  S
N834        C838   1.346       .  A
N834        N835   1.327       .  A
N835        C836   1.352       .  A
C836        C837   1.394       .  A
C836        H839   1.082       .  S
C837        C838   1.378       .  A
C838        H840   1.082       .  S
N841        C845   1.351       .  A
N841        N842   1.327       .  A
N841       Cu849   2.125       .  S
N842        C843   1.347       .  A
N842       Cu848   2.075       .  S
C843        C844   1.378       .  A
C843        H846   1.082       .  S
C844        C845   1.391       .  A
C845        H847   1.082       .  S
Cu848       N851   2.072       .  S
Cu849       N859   2.123       .  S
Cu850       N852   2.027       .  S
Cu850       N858   2.028       .  S
N851        C855   1.344       .  A
N851        N852   1.315       .  A
N852        C853   1.337       .  A
C853        C854   1.380       .  A
C853        H856   1.081       .  S
C854       C1070   1.470   1_545  S
C854        C855   1.393       .  A
C855        H857   1.081       .  S
N858        C862   1.337       .  A
N858        N859   1.320       .  A
N859        C860   1.355       .  A
C860        C861   1.398       .  A
C860        H863   1.082       .  S
C861        C862   1.372       .  A
C862        H864   1.082       .  S
N865        C869   1.349       .  A
N865        N866   1.326       .  A
N865       Cu873   2.111       .  S
N866        C867   1.346       .  A
N866       Cu872   2.072       .  S
C867        C868   1.379       .  A
C867        H870   1.082       .  S
C868        C869   1.389       .  A
C869        H871   1.082       .  S
Cu872       N875   2.069       .  S
Cu873       N883   2.109       .  S
Cu874       N876   2.046       .  S
Cu874       N882   2.048       .  S
N875        C879   1.345       .  A
N875        N876   1.318       .  A
N876        C877   1.339       .  A
C877        C878   1.382       .  A
C877        H880   1.081       .  S
C878        C879   1.389       .  A
C879        H881   1.081       .  S
N882        C886   1.340       .  A
N882        N883   1.321       .  A
N883        C884   1.353       .  A
C884        C885   1.393       .  A
C884        H887   1.082       .  S
C885        C886   1.377       .  A
C886        H888   1.082       .  S
N889        C893   1.351       .  A
N889        N890   1.325       .  A
N889       Cu897   2.115       .  S
N890        C891   1.343       .  A
N890       Cu896   2.064       .  S
C891        C892   1.378       .  A
C891        H894   1.082       .  S
C892        C893   1.391       .  A
C893        H895   1.082       .  S
Cu896       N899   2.061       .  S
Cu897       N907   2.114       .  S
Cu898       N900   2.043       .  S
Cu898       N906   2.049       .  S
N899        C903   1.341       .  A
N899        N900   1.317       .  A
N900        C901   1.340       .  A
C901        C902   1.383       .  A
C901        H904   1.081       .  S
C902        C998   1.470       .  S
C902        C903   1.389       .  A
C903        H905   1.082       .  S
N906        C910   1.341       .  A
N906        N907   1.323       .  A
N907        C908   1.353       .  A
C908        C909   1.392       .  A
C908        H911   1.082       .  S
C909        C910   1.375       .  A
C910        H912   1.082       .  S
N913        C917   1.343       .  A
N913        N914   1.320       .  A
N913       Cu921   2.041       .  S
N914        C915   1.349       .  A
N914       Cu920   2.107       .  S
C915        C916   1.392       .  A
C915        H918   1.082       .  S
C916       C1077   1.469       .  S
C916        C917   1.377       .  A
C917        H919   1.082       .  S
Cu920       N923   2.109       .  S
Cu921       N931   2.041       .  S
Cu922       N924   2.129       .  S
Cu922       N930   2.127       .  S
N923        C927   1.352       .  A
N923        N924   1.327       .  A
N924        C925   1.354       .  A
C925        C926   1.393       .  A
C925        H928   1.082       .  S
C926        C927   1.388       .  A
C927        H929   1.082       .  S
N930        C934   1.354       .  A
N930        N931   1.322       .  A
N931        C932   1.341       .  A
C932        C933   1.375       .  A
C932        H935   1.082       .  S
C933       C1012   1.479       .  S
C933        C934   1.396       .  A
C934        H936   1.082       .  S
N937        C941   1.347       .  A
N937        N938   1.322       .  A
N937       Cu945   2.064       .  S
N938        C939   1.347       .  A
N938       Cu944   2.098       .  S
C939        C940   1.389       .  A
C939        H942   1.082       .  S
C940       C1005   1.475       .  S
C940        C941   1.380       .  A
C941        H943   1.082       .  S
Cu944       N947   2.097       .  S
Cu945       N955   2.065       .  S
Cu946       N948   2.122       .  S
Cu946       N954   2.121       .  S
N947        C951   1.352       .  A
N947        N948   1.325       .  A
N948        C949   1.351       .  A
C949        C950   1.392       .  A
C949        H952   1.082       .  S
C950        C951   1.387       .  A
C951        H953   1.082       .  S
N954        C958   1.352       .  A
N954        N955   1.323       .  A
N955        C956   1.346       .  A
C956        C957   1.380       .  A
C956        H959   1.082       .  S
C957       C1084   1.485       .  S
C957        C958   1.394       .  A
C958        H960   1.082       .  S
N961        C965   1.344       .  A
N961        N962   1.323       .  A
N961       Cu969   2.062       .  S
N962        C963   1.355       .  A
N962       Cu968   2.125       .  S
C963        C964   1.396       .  A
C963        H966   1.082       .  S
C964        C988   1.486       .  S
C964        C965   1.380       .  A
C965        H967   1.082       .  S
Cu968       N971   2.127       .  S
Cu969       N979   2.061       .  S
Cu970       N972   2.115       .  S
Cu970       N978   2.114       .  S
N971        C975   1.352       .  A
N971        N972   1.327       .  A
N972        C973   1.355       .  A
C973        C974   1.391       .  A
C973        H976   1.082       .  S
C974        C975   1.392       .  A
C975        H977   1.082       .  S
N978        C982   1.351       .  A
N978        N979   1.322       .  A
N979        C980   1.345       .  A
C980        C981   1.380       .  A
C980        H983   1.082       .  S
C981       C1029   1.475       .  S
C981        C982   1.393       .  A
C982        H984   1.082       .  S
N985        C989   1.350       .  A
N985        N986   1.326       .  A
N985       Cu993   2.120       .  S
N986        C987   1.349       .  A
N986       Cu992   2.082       .  S
C987        C988   1.383       .  A
C987        H990   1.082       .  S
C988        C989   1.391       .  A
C989        H991   1.082       .  S
Cu992       N995   2.080       .  S
Cu993      N1003   2.118       .  S
Cu994       N996   2.041       .  S
Cu994      N1002   2.043       .  S
N995        C999   1.344       .  A
N995        N996   1.318       .  A
N996        C997   1.340       .  A
C997        C998   1.381       .  A
C997       H1000   1.082       .  S
C998        C999   1.390       .  A
C999       H1001   1.081       .  S
N1002      C1006   1.341       .  A
N1002      N1003   1.322       .  A
N1003      C1004   1.353       .  A
C1004      C1005   1.393       .  A
C1004      H1007   1.082       .  S
C1005      C1006   1.375       .  A
C1006      H1008   1.082       .  S
N1009      C1013   1.351       .  A
N1009      N1010   1.326       .  A
N1009     Cu1017   2.125       .  S
N1010      C1011   1.346       .  A
N1010     Cu1016   2.062       .  S
C1011      C1012   1.377       .  A
C1011      H1014   1.082       .  S
C1012      C1013   1.393       .  A
C1013      H1015   1.082       .  S
Cu1016     N1019   2.059       .  S
Cu1017     N1027   2.124       .  S
Cu1018     N1020   2.042       .  S
Cu1018     N1026   2.047       .  S
N1019      C1023   1.341       .  A
N1019      N1020   1.316       .  A
N1020      C1021   1.339       .  A
C1021      C1022   1.383       .  A
C1021      H1024   1.082       .  S
C1022      C1166   1.468       .  S
C1022      C1023   1.388       .  A
C1023      H1025   1.082       .  S
N1026      C1030   1.341       .  A
N1026      N1027   1.323       .  A
N1027      C1028   1.355       .  A
C1028      C1029   1.394       .  A
C1028      H1031   1.082       .  S
C1029      C1030   1.374       .  A
C1030      H1032   1.082       .  S
N1033      C1037   1.345       .  A
N1033      N1034   1.322       .  A
N1033     Cu1041   2.057       .  S
N1034      C1035   1.351       .  A
N1034     Cu1040   2.116       .  S
C1035      C1036   1.394       .  A
C1035      H1038   1.082       .  S
C1036      C1101   1.477       .  S
C1036      C1037   1.378       .  A
C1037      H1039   1.082       .  S
Cu1040     N1043   2.116       .  S
Cu1041     N1051   2.058       .  S
Cu1042     N1044   2.121       .  S
Cu1042     N1050   2.119       .  S
N1043      C1047   1.354       .  A
N1043      N1044   1.327       .  A
N1044      C1045   1.353       .  A
C1045      C1046   1.392       .  A
C1045      H1048   1.082       .  S
C1046      C1047   1.390       .  A
C1047      H1049   1.082       .  S
N1050      C1054   1.352       .  A
N1050      N1051   1.323       .  A
N1051      C1052   1.345       .  A
C1052      C1053   1.379       .  A
C1052      H1055   1.082       .  S
C1053      C1060   1.482       .  S
C1053      C1054   1.394       .  A
C1054      H1056   1.082       .  S
N1057      C1061   1.351       .  A
N1057      N1058   1.326       .  A
N1057     Cu1065   2.119       .  S
N1058      C1059   1.346       .  A
N1058     Cu1064   2.074       .  S
C1059      C1060   1.380       .  A
C1059      H1062   1.082       .  S
C1060      C1061   1.392       .  A
C1061      H1063   1.082       .  S
Cu1064     N1067   2.071       .  S
Cu1065     N1075   2.117       .  S
Cu1066     N1068   2.033       .  S
Cu1066     N1074   2.037       .  S
N1067      C1071   1.342       .  A
N1067      N1068   1.317       .  A
N1068      C1069   1.340       .  A
C1069      C1070   1.382       .  A
C1069      H1072   1.082       .  S
C1070      C1071   1.391       .  A
C1071      H1073   1.081       .  S
N1074      C1078   1.339       .  A
N1074      N1075   1.322       .  A
N1075      C1076   1.353       .  A
C1076      C1077   1.393       .  A
C1076      H1079   1.082       .  S
C1077      C1078   1.372       .  A
C1078      H1080   1.082       .  S
N1081      C1085   1.353       .  A
N1081      N1082   1.326       .  A
N1081     Cu1089   2.131       .  S
N1082      C1083   1.345       .  A
N1082     Cu1088   2.069       .  S
C1083      C1084   1.379       .  A
C1083      H1086   1.082       .  S
C1084      C1085   1.394       .  A
C1085      H1087   1.082       .  S
Cu1088     N1091   2.067       .  S
Cu1089     N1099   2.130       .  S
Cu1090     N1092   2.041       .  S
Cu1090     N1098   2.043       .  S
N1091      C1095   1.344       .  A
N1091      N1092   1.317       .  A
N1092      C1093   1.339       .  A
C1093      C1094   1.382       .  A
C1093      H1096   1.081       .  S
C1094      C1238   1.469       .  S
C1094      C1095   1.389       .  A
C1095      H1097   1.081       .  S
N1098      C1102   1.341       .  A
N1098      N1099   1.323       .  A
N1099      C1100   1.355       .  A
C1100      C1101   1.396       .  A
C1100      H1103   1.082       .  S
C1101      C1102   1.374       .  A
C1102      H1104   1.082       .  S
N1105      C1109   1.345       .  A
N1105      N1106   1.322       .  A
N1105     Cu1113   2.058       .  S
N1106      C1107   1.350       .  A
N1106     Cu1112   2.111       .  S
C1107      C1108   1.391       .  A
C1107      H1110   1.082       .  S
C1108      C1156   1.475       .  S
C1108      C1109   1.378       .  A
C1109      H1111   1.082       .  S
Cu1112     N1115   2.113       .  S
Cu1113     N1123   2.058       .  S
Cu1114     N1116   2.112       .  S
Cu1114     N1122   2.111       .  S
N1115      C1119   1.351       .  A
N1115      N1116   1.326       .  A
N1116      C1117   1.353       .  A
C1117      C1118   1.390       .  A
C1117      H1120   1.081       .  S
C1118      C1119   1.389       .  A
C1119      H1121   1.082       .  S
N1122      C1126   1.351       .  A
N1122      N1123   1.323       .  A
N1123      C1124   1.344       .  A
C1124      C1125   1.379       .  A
C1124      H1127   1.082       .  S
C1125      C1276   1.479       .  S
C1125      C1126   1.392       .  A
C1126      H1128   1.082       .  S
N1129      C1133   1.342       .  A
N1129      N1130   1.322       .  A
N1129     Cu1137   2.050       .  S
N1130      C1131   1.354       .  A
N1130     Cu1136   2.123       .  S
C1131      C1132   1.396       .  A
C1131      H1134   1.082       .  S
C1132      C1173   1.481       .  S
C1132      C1133   1.377       .  A
C1133      H1135   1.082       .  S
Cu1136     N1139   2.124       .  S
Cu1137     N1147   2.049       .  S
Cu1138     N1140   2.124       .  S
Cu1138     N1146   2.123       .  S
N1139      C1143   1.352       .  A
N1139      N1140   1.327       .  A
N1140      C1141   1.358       .  A
C1141      C1142   1.394       .  A
C1141      H1144   1.082       .  S
C1142      C1143   1.392       .  A
C1143      H1145   1.082       .  S
N1146      C1150   1.348       .  A
N1146      N1147   1.322       .  A
N1147      C1148   1.348       .  A
C1148      C1149   1.379       .  A
C1148      H1151   1.082       .  S
C1149      C1269   1.480       .  S
C1149      C1150   1.395       .  A
C1150      H1152   1.082       .  S
N1153      C1157   1.353       .  A
N1153      N1154   1.322       .  A
N1153     Cu1161   2.117       .  S
N1154      C1155   1.342       .  A
N1154     Cu1160   2.048       .  S
C1155      C1156   1.375       .  A
C1155      H1158   1.082       .  S
C1156      C1157   1.393       .  A
C1157      H1159   1.082       .  S
Cu1160     N1163   2.045       .  S
Cu1161     N1171   2.118       .  S
Cu1162     N1164   2.069       .  S
Cu1162     N1170   2.069       .  S
N1163      C1167   1.341       .  A
N1163      N1164   1.318       .  A
N1164      C1165   1.342       .  A
C1165      C1166   1.389   1_554  A
C1165      H1168   1.082       .  S
C1166      C1167   1.382   1_556  A
C1167      H1169   1.082       .  S
N1170      C1174   1.348       .  A
N1170      N1171   1.325       .  A
N1171      C1172   1.349       .  A
C1172      C1173   1.391       .  A
C1172      H1175   1.082       .  S
C1173      C1174   1.380       .  A
C1174      H1176   1.082       .  S
N1177      C1181   1.345       .  A
N1177      N1178   1.323       .  A
N1177     Cu1185   2.061       .  S
N1178      C1179   1.350       .  A
N1178     Cu1184   2.108       .  S
C1179      C1180   1.391       .  A
C1179      H1182   1.082       .  S
C1180      C1293   1.475       .  S
C1180      C1181   1.378       .  A
C1181      H1183   1.082       .  S
Cu1184     N1187   2.108       .  S
Cu1185     N1195   2.061       .  S
Cu1186     N1188   2.111       .  S
Cu1186     N1194   2.111       .  S
N1187      C1191   1.354       .  A
N1187      N1188   1.325       .  A
N1188      C1189   1.350       .  A
C1189      C1190   1.390       .  A
C1189      H1192   1.082       .  S
C1190      C1191   1.391       .  A
C1191      H1193   1.082       .  S
N1194      C1198   1.349       .  A
N1194      N1195   1.321       .  A
N1195      C1196   1.347       .  A
C1196      C1197   1.382       .  A
C1196      H1199   1.082       .  S
C1197      C1228   1.478       .  S
C1197      C1198   1.395       .  A
C1198      H1200   1.082       .  S
N1201      C1205   1.345       .  A
N1201      N1202   1.322       .  A
N1201     Cu1209   2.049       .  S
N1202      C1203   1.354       .  A
N1202     Cu1208   2.134       .  S
C1203      C1204   1.398       .  A
C1203      H1206   1.082       .  S
C1204      C1245   1.486       .  S
C1204      C1205   1.378       .  A
C1205      H1207   1.082       .  S
Cu1208     N1211   2.136       .  S
Cu1209     N1219   2.049       .  S
Cu1210     N1212   2.140       .  S
Cu1210     N1218   2.138       .  S
N1211      C1215   1.358       .  A
N1211      N1212   1.328       .  A
N1212      C1213   1.356       .  A
C1213      C1214   1.395       .  A
C1213      H1216   1.082       .  S
C1214      C1215   1.395       .  A
C1215      H1217   1.082       .  S
N1218      C1222   1.357       .  A
N1218      N1219   1.322       .  A
N1219      C1220   1.343       .  A
C1220      C1221   1.377       .  A
C1220      H1223   1.082       .  S
C1221      C1252   1.488       .  S
C1221      C1222   1.400       .  A
C1222      H1224   1.082       .  S
N1225      C1229   1.358       .  A
N1225      N1226   1.324       .  A
N1225     Cu1233   2.140       .  S
N1226      C1227   1.339       .  A
N1226     Cu1232   2.041       .  S
C1227      C1228   1.372       .  A
C1227      H1230   1.082       .  S
C1228      C1229   1.398       .  A
C1229      H1231   1.082       .  S
Cu1232     N1235   2.038       .  S
Cu1233     N1243   2.141       .  S
Cu1234     N1236   2.058       .  S
Cu1234     N1242   2.061       .  S
N1235      C1239   1.341       .  A
N1235      N1236   1.316       .  A
N1236      C1237   1.341       .  A
C1237      C1238   1.388       .  A
C1237      H1240   1.081       .  S
C1238      C1239   1.383       .  A
C1239      H1241   1.081       .  S
N1242      C1246   1.344       .  A
N1242      N1243   1.326       .  A
N1243      C1244   1.355       .  A
C1244      C1245   1.397       .  A
C1244      H1247   1.082       .  S
C1245      C1246   1.376       .  A
C1246      H1248   1.082       .  S
N1249      C1253   1.352       .  A
N1249      N1250   1.329       .  A
N1249     Cu1257   2.140       .  S
N1250      C1251   1.349       .  A
N1250     Cu1256   2.081       .  S
C1251      C1252   1.380       .  A
C1251      H1254   1.082       .  S
C1252      C1253   1.394       .  A
C1253      H1255   1.082       .  S
Cu1256     N1259   2.077       .  S
Cu1257     N1267   2.135       .  S
Cu1258     N1260   2.019       .  S
Cu1258     N1266   2.014       .  S
N1259      C1263   1.347       .  A
N1259      N1260   1.316       .  A
N1260      C1261   1.335       .  A
C1261      C1262   1.377       .  A
C1261      H1264   1.081       .  S
C1262      C1263   1.393       .  A
C1263      H1265   1.082       .  S
N1266      C1270   1.335       .  A
N1266      N1267   1.318       .  A
N1267      C1268   1.359       .  A
C1268      C1269   1.403       .  A
C1268      H1271   1.082       .  S
C1269      C1270   1.371       .  A
C1270      H1272   1.082       .  S
N1273      C1277   1.349       .  A
N1273      N1274   1.325       .  A
N1273     Cu1281   2.111       .  S
N1274      C1275   1.346       .  A
N1274     Cu1280   2.073       .  S
C1275      C1276   1.380       .  A
C1275      H1278   1.082       .  S
C1276      C1277   1.389       .  A
C1277      H1279   1.082       .  S
Cu1280     N1283   2.071       .  S
Cu1281     N1291   2.110       .  S
Cu1282     N1284   2.042       .  S
Cu1282     N1290   2.048       .  S
N1283      C1287   1.344       .  A
N1283      N1284   1.318       .  A
N1284      C1285   1.339       .  A
C1285      C1286   1.380       .  A
C1285      H1288   1.082       .  S
C1286      C1287   1.389       .  A
C1287      H1289   1.082       .  S
N1290      C1294   1.342       .  A
N1290      N1291   1.322       .  A
N1291      C1292   1.351       .  A
C1292      C1293   1.392       .  A
C1292      H1295   1.082       .  S
C1293      C1294   1.377       .  A
C1294      H1296   1.082       .  S
C1297      C1298   1.420       .  A
C1297      C1302   1.421   1_545  A
C1298      C1299   1.420   1_545  A
C1298      C1303   1.450       .  S
C1299      C1300   1.414       .  A
C1299      C1306   1.450       .  S
C1300      C1301   1.413       .  A
C1301      C1302   1.422       .  A
C1301      C1304   1.450       .  S
C1302      C1305   1.451       .  S
C1303      N1310   1.157       .  T
C1304      N1309   1.157       .  T
C1305      N1307   1.158       .  T
C1306      N1308   1.157       .  T
C1311      C1312   1.419       .  A
C1311      C1316   1.419       .  A
C1312      C1313   1.418       .  A
C1312      C1317   1.450       .  S
C1313      C1314   1.412       .  A
C1313      C1320   1.450       .  S
C1314      C1315   1.412       .  A
C1315      C1316   1.418       .  A
C1315      C1318   1.450       .  S
C1316      C1319   1.451       .  S
C1317      N1324   1.157       .  T
C1318      N1323   1.157       .  T
C1319      N1321   1.157       .  T
C1320      N1322   1.157       .  T
C1325      C1326   1.425       .  A
C1325      C1330   1.423       .  A
C1326      C1327   1.425   1_655  A
C1326      C1331   1.451       .  S
C1327      C1328   1.415       .  A
C1327      C1334   1.451       .  S
C1328      C1329   1.416       .  A
C1329      C1330   1.426   1_455  A
C1329      C1332   1.450       .  S
C1330      C1333   1.450       .  S
C1331      N1338   1.158       .  T
C1332      N1337   1.157       .  T
C1333      N1335   1.157       .  T
C1334      N1336   1.157       .  T
C1339      C1340   1.416       .  A
C1339      C1344   1.414       .  A
C1340      C1341   1.428       .  A
C1340      C1345   1.451       .  S
C1341      C1342   1.427       .  A
C1341      C1348   1.450       .  S
C1342      C1343   1.430       .  A
C1343      C1344   1.425       .  A
C1343      C1346   1.451       .  S
C1344      C1347   1.452       .  S
C1345      N1352   1.157       .  T
C1346      N1351   1.158       .  T
C1347      N1349   1.157       .  T
C1348      N1350   1.158       .  T
C1353      C1354   1.423       .  A
C1353      C1358   1.424   1_455  A
C1354      C1355   1.424   1_455  A
C1354      C1359   1.450       .  S
C1355      C1356   1.414       .  A
C1355      C1362   1.450       .  S
C1356      C1357   1.414       .  A
C1357      C1358   1.422       .  A
C1357      C1360   1.451       .  S
C1358      C1361   1.450       .  S
C1359      N1366   1.157       .  T
C1360      N1365   1.157       .  T
C1361      N1363   1.157   1_655  T
C1362      N1364   1.157       .  T
C1367      C1368   1.414   1_545  A
C1367      C1372   1.414       .  A
C1368      C1369   1.421       .  A
C1368      C1373   1.450       .  S
C1369      C1370   1.416       .  A
C1369      C1376   1.450       .  S
C1370      C1371   1.416       .  A
C1371      C1372   1.422   1_565  A
C1371      C1374   1.449       .  S
C1372      C1375   1.450       .  S
C1373      N1380   1.157       .  T
C1374      N1379   1.157       .  T
C1375      N1377   1.157       .  T
C1376      N1378   1.157       .  T
C1381      C1382   1.414       .  A
C1381      C1386   1.415   1_554  A
C1382      C1383   1.418   1_554  A
C1382      C1387   1.450       .  S
C1383      C1384   1.415       .  A
C1383      C1390   1.449       .  S
C1384      C1385   1.415       .  A
C1385      C1386   1.421       .  A
C1385      C1388   1.450       .  S
C1386      C1389   1.449       .  S
C1387      N1394   1.157       .  T
C1388      N1393   1.157       .  T
C1389      N1391   1.157       .  T
C1390      N1392   1.157       .  T
C1395      C1396   1.413       .  A
C1395      C1400   1.412       .  A
C1396      C1397   1.422       .  A
C1396      C1401   1.450       .  S
C1397      C1398   1.420       .  A
C1397      C1404   1.450       .  S
C1398      C1399   1.420       .  A
C1399      C1400   1.421       .  A
C1399      C1402   1.450       .  S
C1400      C1403   1.450       .  S
C1401      N1408   1.157       .  T
C1402      N1407   1.157       .  T
C1403      N1405   1.157       .  T
C1404      N1406   1.157       .  T
C1409      C1410   1.412       .  A
C1409      C1414   1.413   1_455  A
C1410      C1411   1.422   1_455  A
C1410      C1415   1.452       .  S
C1411      C1412   1.427       .  A
C1411      C1418   1.450       .  S
C1412      C1413   1.425       .  A
C1413      C1414   1.422       .  A
C1413      C1416   1.450       .  S
C1414      C1417   1.451   1_655  S
C1415      N1422   1.157       .  T
C1416      N1421   1.157       .  T
C1417      N1419   1.157       .  T
C1418      N1420   1.157       .  T
C1423      C1424   1.418       .  A
C1423      C1428   1.419       .  A
C1424      C1425   1.419       .  A
C1424      C1429   1.450       .  S
C1425      C1426   1.412       .  A
C1425      C1432   1.450       .  S
C1426      C1427   1.413       .  A
C1427      C1428   1.421       .  A
C1427      C1430   1.450       .  S
C1428      C1431   1.450       .  S
C1429      N1436   1.157       .  T
C1430      N1435   1.157       .  T
C1431      N1433   1.157       .  T
C1432      N1434   1.157       .  T
C1437      C1438   1.413       .  A
C1437      C1442   1.413       .  A
C1438      C1439   1.422   1_554  A
C1438      C1443   1.450       .  S
C1439      C1440   1.420       .  A
C1439      C1446   1.449       .  S
C1440      C1441   1.422       .  A
C1441      C1442   1.423   1_556  A
C1441      C1444   1.450       .  S
C1442      C1445   1.451       .  S
C1443      N1450   1.157       .  T
C1444      N1449   1.157       .  T
C1445      N1447   1.157       .  T
C1446      N1448   1.157       .  T
C1451      C1452   1.418   1_455  A
C1451      C1456   1.417       .  A
C1452      C1453   1.422       .  A
C1452      C1457   1.450   1_655  S
C1453      C1454   1.414       .  A
C1453      C1460   1.450       .  S
C1454      C1455   1.415       .  A
C1455      C1456   1.425   1_655  A
C1455      C1458   1.449       .  S
C1456      C1459   1.449       .  S
C1457      N1464   1.157       .  T
C1458      N1463   1.157       .  T
C1459      N1461   1.157       .  T
C1460      N1462   1.157       .  T
C1465      C1466   1.414       .  A
C1465      C1470   1.413       .  A
C1466      C1467   1.421       .  A
C1466      C1471   1.450       .  S
C1467      C1468   1.416   1_554  A
C1467      C1474   1.450       .  S
C1468      C1469   1.415       .  A
C1469      C1470   1.419   1_556  A
C1469      C1472   1.450       .  S
C1470      C1473   1.449       .  S
C1471      N1478   1.157       .  T
C1472      N1477   1.157       .  T
C1473      N1475   1.157       .  T
C1474      N1476   1.157       .  T
C1479      C1480   1.415       .  A
C1479      C1484   1.415       .  A
C1480      C1481   1.424       .  A
C1480      C1485   1.451       .  S
C1481      C1482   1.424       .  A
C1481      C1488   1.451       .  S
C1482      C1483   1.425       .  A
C1483      C1484   1.423       .  A
C1483      C1486   1.451       .  S
C1484      C1487   1.451       .  S
C1485      N1492   1.157       .  T
C1486      N1491   1.158       .  T
C1487      N1489   1.157       .  T
C1488      N1490   1.157       .  T
C1493      C1494   1.414       .  A
C1493      C1498   1.412       .  A
C1494      C1495   1.423       .  A
C1494      C1499   1.451       .  S
C1495      C1496   1.424   1_565  A
C1495      C1502   1.450       .  S
C1496      C1497   1.426       .  A
C1497      C1498   1.424   1_545  A
C1497      C1500   1.450       .  S
C1498      C1501   1.450       .  S
C1499      N1506   1.157       .  T
C1500      N1505   1.157       .  T
C1501      N1503   1.157       .  T
C1502      N1504   1.157       .  T
C1507      C1508   1.416       .  A
C1507      C1512   1.418       .  A
C1508      C1509   1.423       .  A
C1508      C1513   1.449       .  S
C1509      C1510   1.415       .  A
C1509      C1516   1.449       .  S
C1510      C1511   1.417       .  A
C1511      C1512   1.426       .  A
C1511      C1514   1.450       .  S
C1512      C1515   1.450       .  S
C1513      N1520   1.157       .  T
C1514      N1519   1.157       .  T
C1515      N1517   1.157       .  T
C1516      N1518   1.157       .  T
C1521      C1522   1.414   1_545  A
C1521      C1526   1.413       .  A
C1522      C1523   1.421       .  A
C1522      C1527   1.450       .  S
C1523      C1524   1.417       .  A
C1523      C1530   1.450       .  S
C1524      C1525   1.415       .  A
C1525      C1526   1.418   1_565  A
C1525      C1528   1.450       .  S
C1526      C1529   1.449       .  S
C1527      N1534   1.157       .  T
C1528      N1533   1.157       .  T
C1529      N1531   1.157       .  T
C1530      N1532   1.157       .  T
C1535      C1536   1.422       .  A
C1535      C1540   1.425   1_554  A
C1536      C1537   1.424   1_554  A
C1536      C1541   1.450       .  S
C1537      C1538   1.415       .  A
C1537      C1544   1.450       .  S
C1538      C1539   1.413       .  A
C1539      C1540   1.423       .  A
C1539      C1542   1.451       .  S
C1540      C1543   1.451       .  S
C1541      N1548   1.157       .  T
C1542      N1547   1.157       .  T
C1543      N1545   1.158   1_556  T
C1544      N1546   1.157       .  T
C1549      C1550   1.425       .  A
C1549      C1554   1.425       .  A
C1550      C1551   1.419       .  A
C1550      C1555   1.451       .  S
C1551      C1552   1.415       .  A
C1551      C1558   1.452       .  S
C1552      C1553   1.412       .  A
C1553      C1554   1.421       .  A
C1553      C1556   1.451       .  S
C1554      C1557   1.451       .  S
C1555      N1562   1.158       .  T
C1556      N1561   1.157       .  T
C1557      N1559   1.157       .  T
C1558      N1560   1.157       .  T
C1563      C1564   1.415       .  A
C1563      C1568   1.415       .  A
C1564      C1565   1.421       .  A
C1564      C1569   1.451       .  S
C1565      C1566   1.421       .  A
C1565      C1572   1.451       .  S
C1566      C1567   1.422       .  A
C1567      C1568   1.423       .  A
C1567      C1570   1.450       .  S
C1568      C1571   1.450       .  S
C1569      N1576   1.157       .  T
C1570      N1575   1.157       .  T
C1571      N1573   1.157       .  T
C1572      N1574   1.157       .  T
C1577      C1578   1.426       .  A
C1577      C1582   1.424       .  A
C1578      C1579   1.423       .  A
C1578      C1583   1.451       .  S
C1579      C1580   1.413       .  A
C1579      C1586   1.451       .  S
C1580      C1581   1.413       .  A
C1581      C1582   1.422       .  A
C1581      C1584   1.451       .  S
C1582      C1585   1.450       .  S
C1583      N1590   1.158       .  T
C1584      N1589   1.157       .  T
C1585      N1587   1.157       .  T
C1586      N1588   1.157       .  T
C1591      C1592   1.411       .  A
C1591      C1596   1.410       .  A
C1592      C1593   1.417       .  A
C1592      C1597   1.451       .  S
C1593      C1594   1.420       .  A
C1593      C1600   1.451       .  S
C1594      C1595   1.421       .  A
C1595      C1596   1.416       .  A
C1595      C1598   1.451       .  S
C1596      C1599   1.451       .  S
C1597      N1604   1.157       .  T
C1598      N1603   1.157       .  T
C1599      N1601   1.157       .  T
C1600      N1602   1.157       .  T
C1605      C1606   1.427       .  A
C1605      C1610   1.425       .  A
C1606      C1607   1.419       .  A
C1606      C1611   1.452       .  S
C1607      C1608   1.414       .  A
C1607      C1614   1.452       .  S
C1608      C1609   1.416       .  A
C1609      C1610   1.421       .  A
C1609      C1612   1.452       .  S
C1610      C1613   1.452       .  S
C1611      N1618   1.158       .  T
C1612      N1617   1.158       .  T
C1613      N1615   1.158       .  T
C1614      N1616   1.157       .  T
C1619      C1620   1.415       .  A
C1619      C1624   1.414       .  A
C1620      C1621   1.421       .  A
C1620      C1625   1.452       .  S
C1621      C1622   1.424       .  A
C1621      C1628   1.451       .  S
C1622      C1623   1.422       .  A
C1623      C1624   1.421       .  A
C1623      C1626   1.450       .  S
C1624      C1627   1.451       .  S
C1625      N1632   1.157       .  T
C1626      N1631   1.157       .  T
C1627      N1629   1.157       .  T
C1628      N1630   1.158       .  T
