geometry optimzed in LAMMPS
_audit_creation_date              2020-11-30 
_audit_creation_method            'lammps2cif' 
_symmetry_space_group_name_H-M    'P1' 
_symmetry_Int_Tables_number       1 
_symmetry_cell_setting            triclinic 
loop_ 
_symmetry_equiv_pos_as_xyz 
  x,y,z 
_cell_length_a                    42.97682133 
_cell_length_b                    42.51210527154407 
_cell_length_c                    42.910952442141934 
_cell_angle_alpha                 90.01227243291478 
_cell_angle_beta                  90.71443554788787 
_cell_angle_gamma                 88.91942187788193 
loop_ 
_atom_site_label 
_atom_site_type_symbol 
_atom_site_fract_x 
_atom_site_fract_y 
_atom_site_fract_z 
_atom_site_charge 
C1          C  0.41535838  0.38275622  0.41861293     0.82600
N2          N  0.42579994  0.39596005  0.39187189    -0.75700
C3          C  0.41361495  0.42411868  0.38205317     0.85100
N4          N  0.39087894  0.43843148  0.39851179    -0.75600
C5          C  0.37982984  0.42507571  0.42453908     0.85200
N6          N  0.39224439  0.39731311  0.43480924    -0.77300
C7          C  0.41226118  0.28879530  0.12211818     0.82600
N8          N  0.38665676  0.27614687  0.13553242    -0.75700
C9          C  0.37684613  0.28695018  0.16387640     0.85100
N10         N  0.39298571  0.30972992  0.17863844    -0.75600
C11         C  0.41797935  0.32271539  0.16521160     0.85200
N12         N  0.42729373  0.31255223  0.13678984    -0.77300
Zn13       Zn  0.45830546  0.19982372  0.49449590     1.49700
Zn14       Zn  0.45938078  0.22908156  0.42403282     1.49400
Zn15       Zn  0.48458765  0.26903016  0.48137516     1.49100
Zn16       Zn  0.01692135  0.20840267  0.46363678     1.49500
O17         O  0.48056020  0.22674133  0.46471674    -1.81700
O18         O  0.41746176  0.18561196  0.47382831    -0.72300
O19         O  0.44969644  0.27454994  0.41146141    -0.72200
O20         O  0.44381630  0.26218152  0.03067533    -0.71700
O21         O  0.41870550  0.20676082  0.42635913    -0.72400
O22         O  0.43611910  0.21172186  0.04100134    -0.72000
O23         O  0.46433076  0.30123342  0.45354958    -0.72500
O24         O  0.04497579  0.23797353  0.48616467    -0.71900
O25         O  0.48509373  0.20815237  0.39004700    -0.72700
O26         O  0.01359272  0.27805460  0.49879137    -0.72100
O27         O  0.03002372  0.20395984  0.41884607    -0.72500
O28         O  0.02433975  0.16630508  0.48307973    -0.72400
O29         O  0.48005080  0.15330196  0.01003958    -0.72200
C30         C  0.40514713  0.19051855  0.44694584     0.79600
C31         C  0.45199279  0.30029620  0.42647532     0.80000
C32         C  0.43411893  0.24070125  0.04867025     0.79000
C33         C  0.04034968  0.26487215  0.49840005     0.79400
C34         C  0.51425829  0.20241618  0.38861806     0.80500
C35         C  0.51154665  0.15046467  0.49355435     0.79600
C36         C  0.29215263  0.16277815  0.36226989     0.82600
N37         N  0.28032356  0.13829697  0.37814901    -0.75700
C38         C  0.29281186  0.12912428  0.40593849     0.85100
N39         N  0.31783676  0.14446166  0.41780369    -0.75600
C40         C  0.33036347  0.16870641  0.40170247     0.85200
N41         N  0.31731501  0.17785858  0.37399727    -0.77300
Zn42       Zn  0.24606116  0.47140052  0.43631553     1.49700
Zn43       Zn  0.24672403  0.44292847  0.50362883     1.49400
Zn44       Zn  0.21495100  0.02909043  0.48055945     1.49100
Zn45       Zn  0.18185804  0.45118636  0.46699327     1.49500
O46         O  0.22285810  0.46956145  0.47443631    -1.81700
O47         O  0.28869675  0.45303248  0.44251885    -0.72300
O48         O  0.25607703  0.48262742  0.03340070    -0.72200
O49         O  0.23630164  0.05817696  0.45070784    -0.71700
O50         O  0.28780676  0.42771643  0.48763890    -0.72400
O51         O  0.25203755  0.02579664  0.41312175    -0.72000
O52         O  0.24612746  0.00736201  0.03726678    -0.72500
O53         O  0.14783775  0.48285655  0.48007978    -0.71900
O54         O  0.22256330  0.41819359  0.01243731    -0.72700
O55         O  0.16962608  0.04147653  0.48626846    -0.72100
O56         O  0.17738452  0.41120117  0.49334742    -0.72500
O57         O  0.17754547  0.43819945  0.42093561    -0.72400
O58         O  0.22515722  0.44661892  0.40305702    -0.72200
C59         C  0.30179973  0.43565261  0.46313532     0.79600
C60         C  0.24925422  0.51097165  0.04062654     0.80000
C61         C  0.24989297  0.05324125  0.42492568     0.79000
C62         C  0.14850022  0.51132834  0.48974143     0.79400
C63         C  0.19612092  0.39629700  0.51169634     0.80500
C64         C  0.19787326  0.43612283  0.39945157     0.79600
C65         C  0.04804085  0.03589285  0.08475772     0.82600
N66         N  0.02941829  0.05988576  0.07425068    -0.75700
C67         C  0.03815535  0.07755680  0.04969604     0.85100
N68         N  0.06562921  0.07088813  0.03540146    -0.75600
C69         C  0.08396840  0.04650915  0.04545248     0.85200
N70         N  0.07523045  0.02931007  0.07037375    -0.77300
C71         C  0.12507573  0.40053060  0.28119511     0.82600
N72         N  0.13135936  0.41456519  0.30892821    -0.75700
C73         C  0.15658531  0.40526050  0.32616942     0.85100
N74         N  0.17568699  0.38177192  0.31546151    -0.75600
C75         C  0.16936396  0.36746316  0.28782529     0.85200
N76         N  0.14373709  0.37673675  0.27107230    -0.77300
Zn77       Zn  0.01202193  0.49751674  0.22083156     1.49700
Zn78       Zn  0.44536836  0.47392997  0.18875176     1.49400
Zn79       Zn  0.47882821  0.43289509  0.24041485     1.49100
Zn80       Zn  0.44352598  0.49758942  0.25964631     1.49500
O81         O  0.46836049  0.47581343  0.22764708    -1.81700
O82         O  0.01527160  0.50637370  0.17492820    -0.72300
O83         O  0.44234827  0.42971450  0.17221875    -0.72200
O84         O  0.03524730  0.42723224  0.24708869    -0.71700
O85         O  0.46495522  0.49993477  0.15576143    -0.72400
O86         O  0.05107843  0.47564085  0.23745698    -0.72000
O87         O  0.46542163  0.40054265  0.20906581    -0.72500
O88         O  0.43847686  0.46822391  0.29644327    -0.71900
O89         O  0.40251243  0.49087378  0.19469888    -0.72700
O90         O  0.45873721  0.42255239  0.28034553    -0.72100
O91         O  0.41039550  0.99521660  0.23715026    -0.72500
O92         O  0.47237749  0.02029682  0.27289033    -0.72400
O93         O  0.01722055  0.02663548  0.24220728    -0.72200
C94         C  0.49236163  0.51008227  0.15277260     0.79600
C95         C  0.45081693  0.40307670  0.18317380     0.80000
C96         C  0.05650565  0.44762373  0.24673506     0.79000
C97         C  0.44503895  0.43909534  0.30077565     0.79400
C98         C  0.38785217  0.50523057  0.21618620     0.80500
C99         C  0.49619506  0.03467441  0.26325365     0.79600
C100        C  0.28784435  0.02777349  0.12495601     0.82600
N101        N  0.31294132  0.01166768  0.13654668    -0.75700
C102        C  0.32656501  0.02072804  0.16375559     0.85100
N103        N  0.31511041  0.04637198  0.17925928    -0.75600
C104        C  0.29016171  0.06273268  0.16735267     0.85200
N105        N  0.27675782  0.05320986  0.14032681    -0.77300
C106        C  0.07889422  0.15759359  0.28451266     0.82600
N107        N  0.06175007  0.17115815  0.30748257    -0.75700
C108        C  0.03605987  0.15677139  0.31844802     0.85100
N109        N  0.02725053  0.12892713  0.30588773    -0.75600
C110        C  0.04427939  0.11505428  0.28298715     0.85200
N111        N  0.07015672  0.12943242  0.27248372    -0.77300
C112        C  0.15115507  0.33343196  0.03270017     0.82600
N113        N  0.12434308  0.31989656  0.02298659    -0.75700
C114        C  0.11553019  0.29210642  0.03526097     0.85100
N115        N  0.13336650  0.27797454  0.05753931    -0.75600
C116        C  0.15987460  0.29138719  0.06802207     0.85200
N117        N  0.16903246  0.31907479  0.05530359    -0.77300
Zn118      Zn  0.18120337  0.23253785  0.21002187     1.49700
Zn119      Zn  0.22641052  0.17884059  0.23444782     1.49400
Zn120      Zn  0.23851811  0.21218552  0.16963180     1.49100
Zn121      Zn  0.25152497  0.25005274  0.23311204     1.49500
O122        O  0.22466288  0.21878940  0.21223879    -1.81700
O123        O  0.15202716  0.20337185  0.23263771    -0.72300
O124        O  0.24657263  0.14514241  0.20852796    -0.72200
O125        O  0.20954225  0.23315274  0.13816349    -0.71700
O126        O  0.18362519  0.16378742  0.24663092    -0.72400
O127        O  0.16641641  0.23976110  0.16562482    -0.72000
O128        O  0.24468381  0.16591140  0.16088029    -0.72500
O129        O  0.28879692  0.26035663  0.20500812    -0.71900
O130        O  0.25167647  0.18308906  0.27347511    -0.72700
O131        O  0.28000514  0.23103981  0.16300049    -0.72100
O132        O  0.26977836  0.23174415  0.27359741    -0.72500
O133        O  0.22513271  0.28946956  0.24447736    -0.72400
O134        O  0.17772881  0.27465994  0.22945561    -0.72200
C135        C  0.15659795  0.17655123  0.24533632     0.79600
C136        C  0.25037458  0.14291657  0.17925578     0.80000
C137        C  0.18116093  0.24187673  0.14018965     0.79000
C138        C  0.29697699  0.24980414  0.17830596     0.79400
C139        C  0.26748563  0.20472919  0.28620573     0.80500
C140        C  0.19580661  0.29467820  0.24156158     0.79600
C141        C  0.17802207  0.27605970  0.09355166    -0.14000
C142        C  0.16471118  0.25530449  0.11283121    -0.29200
H143        H  0.20187481  0.28313182  0.09773053     0.15000
H144        H  0.14007606  0.25043475  0.11035357     0.15600
C145        C  0.13010328  0.15941896  0.25851046    -0.14000
C146        C  0.10582054  0.17443173  0.27179431    -0.29200
H147        H  0.13122119  0.13385531  0.25846600     0.15000
H148        H  0.10607480  0.19988048  0.27421089     0.15600
C149        C  0.27847922  0.09170681  0.18241980    -0.14000
C150        C  0.26166865  0.11312254  0.16590655    -0.29200
H151        H  0.28477275  0.09617859  0.20659672     0.15000
H152        H  0.25739633  0.10953808  0.14115364     0.15600
C153        C  0.50381243  0.06590371  0.27652562    -0.14000
C154        C  0.03496788  0.08468014  0.26906408    -0.29200
H155        H  0.48901623  0.07554163  0.29465286     0.15000
H156        H  0.05002032  0.07457561  0.25138261     0.15600
C157        C  0.36937889  0.00892136  0.20177223    -0.14000
C158        C  0.35510487  0.00388078  0.17423580    -0.29200
H159        H  0.35905528  0.02493675  0.21863596     0.15000
H160        H  0.34898404  0.48241963  0.17500569     0.15600
C161        C  0.09680160  0.40914445  0.26332684    -0.14000
C162        C  0.08755008  0.43922775  0.25950736    -0.29200
H163        H  0.08315892  0.39027732  0.25337395     0.15000
H164        H  0.10239307  0.45806042  0.26758491     0.15600
C165        C  0.18925071  0.34088922  0.27680551    -0.14000
C166        C  0.18101608  0.32450477  0.25134030    -0.29200
H167        H  0.20939745  0.33346983  0.29066902     0.15000
H168        H  0.15986229  0.33117962  0.23866386     0.15600
C169        C  0.00380215  0.51553679  0.12156789    -0.14000
C170        C  0.03972033  0.01798709  0.11250410    -0.29200
H171        H  0.48172858  0.53473954  0.10871162     0.15000
H172        H  0.05828450  0.00737234  0.12661662     0.15600
C173        C  0.16001559  0.36346279  0.01805187    -0.14000
C174        C  0.18735174  0.37749865  0.02327738    -0.29200
H175        H  0.14377583  0.36318220  0.50465379     0.15000
H176        H  0.20430851  0.36679605  0.03920812     0.15600
C177        C  0.25897983  0.52390109  0.07075762    -0.14000
C178        C  0.27294117  0.01931227  0.09528500    -0.29200
H179        H  0.25202918  0.54810612  0.07559788     0.15000
H180        H  0.25354662  0.03420137  0.08746427     0.15600
C181        C  0.19083957  0.42055803  0.36958184    -0.14000
C182        C  0.16228152  0.42007500  0.35679971    -0.29200
H183        H  0.21038489  0.41072414  0.35674098     0.15000
H184        H  0.14303740  0.43206416  0.36829364     0.15600
C185        C  0.11742562  0.03898141  0.50290274    -0.14000
C186        C  0.11303224  0.03843052  0.02928165    -0.29200
H187        H  0.11209746  0.06362502  0.49820631     0.15000
H188        H  0.10443196  0.49537599  0.02554812     0.15600
C189        C  0.26356528  0.07980275  0.40814183    -0.14000
C190        C  0.27911686  0.10267819  0.42306728    -0.29200
H191        H  0.26247927  0.07951866  0.38283310     0.15000
H192        H  0.28267377  0.10137878  0.44814721     0.14800
C193        C  0.27769416  0.17145475  0.33207541    -0.14000
C194        C  0.28343170  0.19808046  0.31635111    -0.29200
H195        H  0.26076388  0.15514819  0.32276299     0.15000
H196        H  0.29943287  0.21518736  0.32586190     0.15600
C197        C  0.06657203  0.28136174  0.51243844    -0.14000
C198        C  0.08785033  0.27596805  0.02368891    -0.29200
H199        H  0.06135411  0.31671938  0.01193790     0.15000
H200        H  0.08713931  0.24070882  0.53275641     0.15600
C201        C  0.03091316  0.18942424  0.36578693    -0.14000
C202        C  0.01788058  0.17065547  0.34426454    -0.29200
H203        H  0.05548559  0.19474338  0.36430955     0.15000
H204        H  0.49065164  0.16227368  0.34625839     0.15600
C205        C  0.52358617  0.11733623  0.01202980    -0.14000
C206        C  0.01803408  0.10421748  0.03940781    -0.29200
H207        H  0.04662303  0.11272699  0.49975747     0.15000
H208        H  0.48579456  0.10166813  0.03792493     0.15600
C209        C  0.37462169  0.17655573  0.43912891    -0.14000
C210        C  0.35916605  0.18410325  0.41253138    -0.29200
H211        H  0.36514886  0.15940307  0.45500692     0.15000
H212        H  0.36862296  0.20174279  0.39715367     0.15600
C213        C  0.42024307  0.24960095  0.07913858    -0.14000
C214        C  0.42369094  0.27862660  0.09117228    -0.29200
H215        H  0.40814963  0.23187060  0.09231665     0.15000
H216        H  0.43754991  0.29547294  0.07863375     0.15600
C217        C  0.43354835  0.34870725  0.18123687    -0.14000
C218        C  0.44209406  0.37458561  0.16593972    -0.29200
H219        H  0.43390259  0.34854423  0.20657687     0.15000
H220        H  0.43845530  0.37622272  0.14087259     0.15600
C221        C  0.32665190  0.25891343  0.16387158    -0.14000
C222        C  0.34798955  0.27612946  0.17871329    -0.29200
H223        H  0.33097880  0.25111214  0.14016481     0.15000
H224        H  0.34345808  0.28411718  0.20232009     0.15600
C225        C  0.42901943  0.35319363  0.43086162    -0.14000
C226        C  0.43963718  0.32979754  0.41254710    -0.29200
H227        H  0.42856735  0.34982540  0.45596303     0.15000
H228        H  0.43761175  0.33170667  0.38735459     0.15600
C229        C  0.35184857  0.43921247  0.43811902    -0.14000
C230        C  0.33366535  0.42398971  0.45795261    -0.29200
H231        H  0.34381737  0.46151476  0.42822250     0.15000
H232        H  0.34133385  0.40199999  0.46868698     0.15600
C233        C  0.42337215  0.43937127  0.35325184    -0.14000
C234        C  0.43721276  0.42361686  0.33020251    -0.29200
H235        H  0.41705321  0.46407601  0.35018583     0.15000
H236        H  0.44270819  0.39867493  0.33281799     0.15600
C237        C  0.39773792  0.36653579  0.90822566     0.82600
N238        N  0.41079457  0.37319477  0.88039201    -0.75700
C239        C  0.40033443  0.39806916  0.86330255     0.85100
N240        N  0.37610976  0.41594635  0.87379030    -0.75600
C241        C  0.36271187  0.40932754  0.90143032     0.85200
N242        N  0.37381284  0.38473129  0.91880249    -0.77300
C243        C  0.40426011  0.27222835  0.61574433     0.82600
N244        N  0.37770222  0.26071064  0.62764088    -0.75700
C245        C  0.36449748  0.27393248  0.65309377     0.85100
N246        N  0.37826718  0.29878294  0.66712485    -0.75600
C247        C  0.40460279  0.31106563  0.65537027     0.85200
N248        N  0.41762043  0.29784921  0.62943708    -0.77300
Zn249      Zn  0.45021856  0.18998006  0.00070621     1.49700
Zn250      Zn  0.45059215  0.21803745  0.93099228     1.49400
Zn251      Zn  0.46621635  0.26195760  0.98942595     1.49100
Zn252      Zn  0.01332592  0.21337207  0.97149728     1.49500
O253        O  0.47001537  0.21943434  0.97219925    -1.81700
O254        O  0.41110559  0.17308814  0.98059511    -0.72300
O255        O  0.43869459  0.26165258  0.91690077    -0.72200
O256        O  0.46482036  0.27287036  0.52288351    -0.71700
O257        O  0.41122456  0.19384737  0.93298579    -0.72400
O258        O  0.44724680  0.22543548  0.53447094    -0.72000
O259        O  0.44368403  0.29117932  0.95944842    -0.72500
O260        O  0.04069625  0.24563675  0.99016288    -0.71900
O261        O  0.47863982  0.19931057  0.89780464    -0.72700
O262        O  0.00862276  0.28520686  0.00228333    -0.72100
O263        O  0.02431238  0.20796758  0.92654327    -0.72500
O264        O  0.02397826  0.17276974  0.99189038    -0.72400
O265        O  0.48536957  0.15987045  0.50456014    -0.72200
C266        C  0.39844416  0.17742926  0.95391465     0.79600
C267        C  0.43577049  0.28785452  0.93094937     0.80000
C268        C  0.45131680  0.25443950  0.54137649     0.79000
C269        C  0.03589099  0.27317580  0.00079577     0.79400
C270        C  0.50823684  0.19750226  0.89690846     0.80500
C271        C  0.50814188  0.14714910  0.00227744     0.79600
C272        C  0.27624893  0.15969486  0.88128616     0.82600
N273        N  0.26364105  0.13681008  0.89883027    -0.75700
C274        C  0.27868668  0.12587939  0.92482153     0.85100
N275        N  0.30681520  0.13766805  0.93290668    -0.75600
C276        C  0.31976980  0.16032108  0.91514496     0.85200
N277        N  0.30439891  0.17124154  0.88944992    -0.77300
Zn278      Zn  0.23698591  0.48092902  0.92547097     1.49700
Zn279      Zn  0.24464924  0.45631530  0.99611072     1.49400
Zn280      Zn  0.21960954  0.00982980  0.99870184     1.49100
Zn281      Zn  0.17735316  0.46242548  0.96535957     1.49500
O282        O  0.21851450  0.48088610  0.96680170    -1.81700
O283        O  0.27659096  0.45482628  0.92569717    -0.72300
O284        O  0.25623204  0.46654880  0.54186259    -0.72200
O285        O  0.23344834  0.04762484  0.97367201    -0.71700
O286        O  0.28353699  0.44015984  0.97513290    -0.72400
O287        O  0.23492980  0.02721503  0.92611025    -0.72000
O288        O  0.23511373  0.03636639  0.52204676    -0.72500
O289        O  0.14594720  0.49216542  0.98418868    -0.71900
O290        O  0.22342469  0.40578723  0.51707842    -0.72700
O291        O  0.17495493  0.01692907  0.01197982    -0.72100
O292        O  0.17601383  0.42127660  0.98953627    -0.72500
O293        O  0.16433543  0.45448756  0.92076637    -0.72400
O294        O  0.20704639  0.46358200  0.89353623    -0.72200
C295        C  0.29248823  0.44079595  0.94697388     0.79600
C296        C  0.25136540  0.49459524  0.55076348     0.80000
C297        C  0.23687198  0.05052793  0.94438546     0.79000
C298        C  0.14556975  0.52164418  0.98957986     0.79400
C299        C  0.19561652  0.40721099  0.00752474     0.80500
C300        C  0.17882471  0.45506338  0.89507378     0.79600
C301        C  0.04291083  0.03606100  0.58576652     0.82600
N302        N  0.02577315  0.06068315  0.57410103    -0.75700
C303        C  0.03343356  0.07407779  0.54655765     0.85100
N304        N  0.05822587  0.06237681  0.53045040    -0.75600
C305        C  0.07509102  0.03741335  0.54176295     0.85200
N306        N  0.06743655  0.02453107  0.56949358    -0.77300
C307        C  0.11742644  0.42086195  0.78062584     0.82600
N308        N  0.13399006  0.43437193  0.80404750    -0.75700
C309        C  0.16011002  0.41974199  0.81554127     0.85100
N310        N  0.16961718  0.39174773  0.80343223    -0.75600
C311        C  0.15284032  0.37805144  0.78027374     0.85200
N312        N  0.12680502  0.39262038  0.76907179    -0.77300
Zn313      Zn  0.00515303  0.49156543  0.71456287     1.49700
Zn314      Zn  0.43913372  0.46441780  0.67819451     1.49400
Zn315      Zn  0.46432146  0.42349356  0.73387831     1.49100
Zn316      Zn  0.44060636  0.49478562  0.74623101     1.49500
O317        O  0.46220931  0.46661000  0.71741709    -1.81700
O318        O  0.01191041  0.50079374  0.66859485    -0.72300
O319        O  0.43371254  0.41960902  0.66228259    -0.72200
O320        O  0.01230009  0.41958025  0.74638690    -0.71700
O321        O  0.46116369  0.48861653  0.64542372    -0.72400
O322        O  0.03816172  0.46201085  0.73156968    -0.72000
O323        O  0.44745831  0.39059206  0.70332584    -0.72500
O324        O  0.42690925  0.47107109  0.78347381    -0.71900
O325        O  0.39705001  0.48486159  0.68297957    -0.72700
O326        O  0.44044986  0.42113384  0.77430792    -0.72100
O327        O  0.39911384  0.00380961  0.72105236    -0.72500
O328        O  0.46102339  0.03578276  0.75895514    -0.72400
O329        O  0.01198149  0.03044866  0.74930407    -0.72200
C330        C  0.48921969  0.49707676  0.64282175     0.79600
C331        C  0.43700007  0.39286898  0.67542764     0.80000
C332        C  0.03747554  0.43457018  0.74346537     0.79000
C333        C  0.42746919  0.44221740  0.79116897     0.79400
C334        C  0.38617786  0.50441315  0.70275073     0.80500
C335        C  0.48773105  0.04752607  0.75401964     0.79600
C336        C  0.28777192  0.03795949  0.62111604     0.82600
N337        N  0.30922742  0.02515637  0.64115138    -0.75700
C338        C  0.31751938  0.04075165  0.66767637     0.85100
N339        N  0.30396260  0.06899884  0.67403660    -0.75600
C340        C  0.28249485  0.08185542  0.65409278     0.85200
N341        N  0.27472047  0.06648343  0.62763376    -0.77300
C342        C  0.06744515  0.16482542  0.79024473     0.82600
N343        N  0.05077951  0.17658787  0.81436207    -0.75700
C344        C  0.02650731  0.16041352  0.82589357     0.85100
N345        N  0.01867623  0.13251453  0.81294007    -0.75600
C346        C  0.03532172  0.12037084  0.78890160     0.85200
N347        N  0.05980647  0.13653847  0.77771387    -0.77300
C348        C  0.15098915  0.32399136  0.53773981     0.82600
N349        N  0.12518590  0.30928521  0.52755951    -0.75700
C350        C  0.11605603  0.28226280  0.54109946     0.85100
N351        N  0.13265094  0.27003075  0.56548407    -0.75600
C352        C  0.15845424  0.28477757  0.57625938     0.85200
N353        N  0.16783196  0.31157815  0.56206401    -0.77300
Zn354      Zn  0.17617595  0.24315174  0.72700746     1.49700
Zn355      Zn  0.21558238  0.18510664  0.75098445     1.49400
Zn356      Zn  0.23508806  0.21921155  0.68783624     1.49100
Zn357      Zn  0.24636561  0.25151500  0.75424438     1.49500
O358        O  0.21824129  0.22513012  0.72974037    -1.81700
O359        O  0.14382462  0.21455970  0.74622356    -0.72300
O360        O  0.23824462  0.15242417  0.72739481    -0.72200
O361        O  0.20532267  0.23625872  0.65447477    -0.71700
O362        O  0.17177047  0.17107534  0.75583907    -0.72400
O363        O  0.16375656  0.25078237  0.68181281    -0.72000
O364        O  0.24596025  0.17326036  0.68058004    -0.72500
O365        O  0.28355776  0.26442017  0.72952502    -0.71900
O366        O  0.23565557  0.18552614  0.79323888    -0.72700
O367        O  0.27549205  0.24199792  0.68343921    -0.72100
O368        O  0.26217155  0.22979044  0.79331541    -0.72500
O369        O  0.22390935  0.29068669  0.76747499    -0.72400
O370        O  0.17568038  0.28507472  0.74884175    -0.72200
C371        C  0.14584285  0.18587341  0.75488726     0.79600
C372        C  0.24796427  0.15031844  0.69970199     0.80000
C373        C  0.17777013  0.24779095  0.65594630     0.79000
C374        C  0.29193666  0.25862070  0.70176541     0.79400
C375        C  0.25475378  0.20408324  0.80613975     0.80500
C376        C  0.19614348  0.30084063  0.76353673     0.79600
C377        C  0.17589132  0.27222677  0.60361604    -0.14000
C378        C  0.16127926  0.25807690  0.62720447    -0.29200
H379        H  0.20062591  0.27680568  0.60557645     0.15000
H380        H  0.13607515  0.25641414  0.62654564     0.15600
C381        C  0.11792295  0.16870965  0.76410814    -0.14000
C382        C  0.09382984  0.18286109  0.77832204    -0.29200
H383        H  0.11841885  0.14327839  0.76157736     0.15000
H384        H  0.09455263  0.20788787  0.78333578     0.15600
C385        C  0.26737507  0.11214295  0.66116425    -0.14000
C386        C  0.26278963  0.12050519  0.69075983    -0.29200
H387        H  0.25858964  0.12681597  0.64215469     0.15000
H388        H  0.26965899  0.10445531  0.70945494     0.15600
C389        C  0.49610729  0.07783354  0.76890471    -0.14000
C390        C  0.02728789  0.08971463  0.77495985    -0.29200
H391        H  0.48002478  0.08817971  0.78550432     0.15000
H392        H  0.04181033  0.08085881  0.75622911     0.15600
C393        C  0.35920315  0.00279188  0.68094082    -0.14000
C394        C  0.34317039  0.02899927  0.68811148    -0.29200
H395        H  0.35170229  0.98878957  0.66112144     0.15000
H396        H  0.34382430  0.49031974  0.65940056     0.15600
C397        C  0.08908545  0.43638636  0.76820251    -0.14000
C398        C  0.06648164  0.41961775  0.75463678    -0.29200
H399        H  0.08603254  0.46158954  0.77150982     0.15000
H400        H  0.06829270  0.39410443  0.75385737     0.15600
C401        C  0.16154650  0.34700007  0.76786014    -0.14000
C402        C  0.18789808  0.33185863  0.77634503    -0.29200
H403        H  0.14577727  0.33639103  0.75105846     0.15000
H404        H  0.20424233  0.34278523  0.79235130     0.15600
C405        C  0.00154472  0.51664804  0.61608147    -0.14000
C406        C  0.03532861  0.02176935  0.61598972    -0.29200
H407        H  0.48056926  0.52408632  0.59964415     0.15000
H408        H  0.05385722  0.01009325  0.62930073     0.15600
C409        C  0.15980236  0.35330287  0.52200075    -0.14000
C410        C  0.18683861  0.36735419  0.52775481    -0.29200
H411        H  0.14340618  0.37406562  0.00168865     0.15000
H412        H  0.20318301  0.35702806  0.54454973     0.15600
C413        C  0.26313578  0.50304786  0.58161459    -0.14000
C414        C  0.27864980  0.02103111  0.59245540    -0.29200
H415        H  0.27777614  0.48562833  0.59357681     0.15000
H416        H  0.28709536  0.99705397  0.58910925     0.15600
C417        C  0.16220971  0.44543705  0.86654629    -0.14000
C418        C  0.17726290  0.43289269  0.84219570    -0.29200
H419        H  0.13690664  0.44633145  0.86649008     0.15000
H420        H  0.20232340  0.42905065  0.84343115     0.15600
C421        C  0.12286197  0.00836148  0.02755794    -0.14000
C422        C  0.10114926  0.02327712  0.52421772    -0.29200
H423        H  0.10853104  0.98985710  0.03684594     0.15000
H424        H  0.10025123  0.48704855  0.51775141     0.15600
C425        C  0.24415567  0.08100473  0.93052439    -0.14000
C426        C  0.26593018  0.09964548  0.94286847    -0.29200
H427        H  0.23518238  0.08561642  0.90714480     0.15000
H428        H  0.27692607  0.09343467  0.96503365     0.14800
C429        C  0.26008732  0.17033702  0.85260910    -0.14000
C430        C  0.26935412  0.19535528  0.83622540    -0.29200
H431        H  0.24028132  0.15689952  0.84456314     0.15000
H432        H  0.28851221  0.20944096  0.84472977     0.15600
C433        C  0.06268786  0.29118021  0.01200685    -0.14000
C434        C  0.08893051  0.26581436  0.52857370    -0.29200
H435        H  0.06688832  0.30683780  0.51051435     0.15000
H436        H  0.08772357  0.25051588  0.02609369     0.15600
C437        C  0.02320661  0.19034419  0.87458333    -0.14000
C438        C  0.00939542  0.17220088  0.85312070    -0.29200
H439        H  0.04746879  0.19653576  0.87198086     0.15000
H440        H  0.48605609  0.16455399  0.84804562     0.15600
C441        C  0.52587466  0.11960406  0.50179226    -0.14000
C442        C  0.01495870  0.10145096  0.53473790    -0.29200
H443        H  0.05112512  0.12230973  0.00899906     0.15000
H444        H  0.49700693  0.10945132  0.53942446     0.15600
C445        C  0.36782083  0.16365019  0.94741432    -0.14000
C446        C  0.35080852  0.17259597  0.92236669    -0.29200
H447        H  0.35868638  0.14695332  0.96395803     0.15000
H448        H  0.35985365  0.18991122  0.90638464     0.15600
C449        C  0.44046809  0.26834049  0.57114206    -0.14000
C450        C  0.41763372  0.25618688  0.58805166    -0.29200
H451        H  0.44993879  0.29088055  0.57793189     0.15000
H452        H  0.40706519  0.23445090  0.58037738     0.15600
C453        C  0.41881462  0.33790236  0.67208782    -0.14000
C454        C  0.42798478  0.36422419  0.65771374    -0.29200
H455        H  0.41784753  0.33764603  0.69737760     0.15000
H456        H  0.42605443  0.36578588  0.63248661     0.15600
C457        C  0.32153672  0.27150239  0.69089925    -0.14000
C458        C  0.33494853  0.26142202  0.66450403    -0.29200
H459        H  0.33286505  0.28901879  0.70530857     0.15000
H460        H  0.32399519  0.24315824  0.65072527     0.15600
C461        C  0.40937646  0.33964604  0.92681462    -0.14000
C462        C  0.42345344  0.31491653  0.91316425    -0.29200
H463        H  0.40543581  0.33965135  0.95178660     0.15000
H464        H  0.42515430  0.31397070  0.88791824     0.15600
C465        C  0.33512188  0.42782653  0.91107897    -0.14000
C466        C  0.32173556  0.42418926  0.93893613    -0.29200
H467        H  0.32510672  0.44444265  0.89434756     0.15000
H468        H  0.33219822  0.40836759  0.95613881     0.15600
C469        C  0.41549211  0.40538663  0.83365059    -0.14000
C470        C  0.41204669  0.43373941  0.82028736    -0.29200
H471        H  0.43073991  0.38766287  0.82336607     0.15000
H472        H  0.39798895  0.45187763  0.83151587     0.15600
C473        C  0.40456140  0.87515741  0.41693111     0.82600
N474        N  0.41732686  0.88497395  0.38970168    -0.75700
C475        C  0.40569712  0.91120496  0.37516368     0.85100
N476        N  0.38125989  0.92695746  0.38746771    -0.75600
C477        C  0.36818147  0.91727748  0.41411484     0.85200
N478        N  0.37998946  0.89146554  0.42914313    -0.77300
C479        C  0.41242736  0.76958614  0.12211851     0.82600
N480        N  0.38762219  0.75900908  0.13833401    -0.75700
C481        C  0.38088427  0.77109141  0.16697150     0.85100
N482        N  0.39943861  0.79324373  0.17952749    -0.75600
C483        C  0.42389743  0.80433654  0.16358162     0.85200
N484        N  0.43028050  0.79275074  0.13469437    -0.77300
Zn485      Zn  0.45772311  0.69031583  0.49866907     1.49700
Zn486      Zn  0.45733851  0.72437376  0.43194998     1.49400
Zn487      Zn  0.47275971  0.76414640  0.49198279     1.49100
Zn488      Zn  0.01631724  0.71025110  0.46502606     1.49500
O489        O  0.47729585  0.72258526  0.47292217    -1.81700
O490        O  0.42031529  0.67256073  0.47646285    -0.72300
O491        O  0.44517255  0.76895952  0.41969631    -0.72200
O492        O  0.46110438  0.77374429  0.02123364    -0.71700
O493        O  0.41848076  0.69846468  0.43143091    -0.72400
O494        O  0.44436086  0.72628797  0.03399942    -0.72000
O495        O  0.45099490  0.79605589  0.46356190    -0.72500
O496        O  0.04678946  0.74064243  0.48374111    -0.71900
O497        O  0.48650136  0.70801386  0.39921907    -0.72700
O498        O  0.01646170  0.77943994  0.50143800    -0.72100
O499        O  0.02394656  0.70821856  0.41899462    -0.72500
O500        O  0.02633942  0.66701702  0.48203154    -0.72400
O501        O  0.48136732  0.66055838  0.00628504    -0.72200
C502        C  0.40711129  0.67883276  0.45043963     0.79600
C503        C  0.44283774  0.79454757  0.43495441     0.80000
C504        C  0.44825328  0.75538635  0.04043300     0.79000
C505        C  0.04329083  0.76755736  0.49638753     0.79400
C506        C  0.51604367  0.70504670  0.39857725     0.80500
C507        C  0.51631808  0.64894671  0.50178141     0.79600
C508        C  0.28832818  0.65381980  0.37399942     0.82600
N509        N  0.27744535  0.62902010  0.39013210    -0.75700
C510        C  0.29266540  0.61829899  0.41606261     0.85100
N511        N  0.31923463  0.63245180  0.42570921    -0.75600
C512        C  0.33058035  0.65704497  0.40926340     0.85200
N513        N  0.31497905  0.66764666  0.38355467    -0.77300
Zn514      Zn  0.24061859  0.98244495  0.42875553     1.49700
Zn515      Zn  0.24406108  0.96196913  0.50126684     1.49400
Zn516      Zn  0.21922889  0.51263629  0.49028712     1.49100
Zn517      Zn  0.17889882  0.96592641  0.46465020     1.49500
O518        O  0.21975825  0.98479999  0.46881479    -1.81700
O519        O  0.28043186  0.95785495  0.43409568    -0.72300
O520        O  0.27376584  0.96274260  0.03369192    -0.72200
O521        O  0.24163308  0.54404928  0.46327038    -0.71700
O522        O  0.28416399  0.94443867  0.48410696    -0.72400
O523        O  0.25180559  0.51557917  0.42107064    -0.72000
O524        O  0.23359178  0.52898569  0.02252652    -0.72500
O525        O  0.14628376  0.99519365  0.48316175    -0.71900
O526        O  0.24067139  0.90041661  0.00744094    -0.72700
O527        O  0.17396982  0.52585609  0.49313633    -0.72100
O528        O  0.17755023  0.92450521  0.48811494    -0.72500
O529        O  0.16872228  0.95637549  0.41921437    -0.72400
O530        O  0.21431359  0.96088414  0.39574221    -0.72200
C531        C  0.29499927  0.94453139  0.45669049     0.79600
C532        C  0.26655118  0.98798261  0.04799071     0.80000
C533        C  0.25157516  0.54168315  0.43551177     0.79000
C534        C  0.14576767  0.02451467  0.48956560     0.79400
C535        C  0.19559299  0.91168837  0.50844108     0.80500
C536        C  0.18573551  0.95339063  0.39520348     0.79600
C537        C  0.04052790  0.53155069  0.08206177     0.82600
N538        N  0.02464429  0.55761181  0.07200128    -0.75700
C539        C  0.03309976  0.57228271  0.04544120     0.85100
N540        N  0.05745046  0.56046180  0.02873497    -0.75600
C541        C  0.07295631  0.53403059  0.03854729     0.85200
N542        N  0.06456019  0.51988576  0.06532843    -0.77300
C543        C  0.13185601  0.91459937  0.27909575     0.82600
N544        N  0.14683529  0.92663928  0.30428240    -0.75700
C545        C  0.17234272  0.91160763  0.31666983     0.85100
N546        N  0.18307549  0.88439302  0.30338237    -0.75600
C547        C  0.16788189  0.87208776  0.27822279     0.85200
N548        N  0.14228595  0.88719997  0.26646827    -0.77300
Zn549      Zn  0.01497154  0.98636526  0.21742842     1.49700
Zn550      Zn  0.45598286  0.95670451  0.18600553     1.49400
Zn551      Zn  0.48590181  0.91403483  0.23954674     1.49100
Zn552      Zn  0.45131180  0.98045106  0.25694592     1.49500
O553        O  0.47662470  0.95755123  0.22651172    -1.81700
O554        O  0.02015765  0.99826935  0.17237695    -0.72300
O555        O  0.44859967  0.91232056  0.17121763    -0.72200
O556        O  0.02890986  0.91264603  0.23981759    -0.71700
O557        O  0.48237824  0.97669281  0.15360348    -0.72400
O558        O  0.05113876  0.95877380  0.23219976    -0.72000
O559        O  0.47139085  0.88206539  0.20740467    -0.72500
O560        O  0.44273952  0.95115711  0.29280492    -0.71900
O561        O  0.41485932  0.97979335  0.18781830    -0.72700
O562        O  0.46415504  0.90496559  0.27963526    -0.72100
O563        O  0.40045665  0.51047832  0.24268058    -0.72500
O564        O  0.46473781  0.53747945  0.27426962    -0.72400
O565        O  0.00997643  0.53902772  0.24327491    -0.72200
C566        C  0.51075314  0.98476710  0.15364009     0.79600
C567        C  0.45621301  0.88526230  0.18180879     0.80000
C568        C  0.05281797  0.92977523  0.23960897     0.79000
C569        C  0.44874880  0.92213511  0.29843509     0.79400
C570        C  0.39971359  0.99362999  0.20936801     0.80500
C571        C  0.48896991  0.55104531  0.26455542     0.79600
C572        C  0.28412252  0.52130452  0.12209148     0.82600
N573        N  0.30473175  0.50618880  0.14114872    -0.75700
C574        C  0.31396783  0.51946688  0.16841633     0.85100
N575        N  0.30207953  0.54814134  0.17685659    -0.75600
C576        C  0.28105994  0.56320922  0.15774202     0.85200
N577        N  0.27265515  0.54993684  0.13036556    -0.77300
C578        C  0.06741347  0.67194450  0.28289703     0.82600
N579        N  0.05009945  0.68572471  0.30557976    -0.75700
C580        C  0.02438113  0.67138741  0.31658544     0.85100
N581        N  0.01583630  0.64321411  0.30450067    -0.75600
C582        C  0.03302556  0.62916607  0.28182045     0.85200
N583        N  0.05886920  0.64355715  0.27126975    -0.77300
C584        C  0.17063658  0.81434147  0.02969124     0.82600
N585        N  0.14389102  0.80139978  0.01927815    -0.75700
C586        C  0.13265330  0.77530930  0.03288386     0.85100
N587        N  0.14797330  0.76236964  0.05765306    -0.75600
C588        C  0.17458616  0.77531721  0.06875138     0.85200
N589        N  0.18616387  0.80122979  0.05452493    -0.77300
Zn590      Zn  0.18564373  0.73797392  0.22070389     1.49700
Zn591      Zn  0.22008628  0.67812352  0.24855438     1.49400
Zn592      Zn  0.24004978  0.70317053  0.18235492     1.49100
Zn593      Zn  0.25798702  0.74192531  0.24381580     1.49500
O594        O  0.22596959  0.71579196  0.22378545    -1.81700
O595        O  0.15016162  0.71291271  0.23987757    -0.72300
O596        O  0.23942880  0.64051958  0.22827548    -0.72200
O597        O  0.21189067  0.72107227  0.14846098    -0.71700
O598        O  0.17484347  0.66918169  0.25543561    -0.72400
O599        O  0.17481620  0.74617929  0.17512751    -0.72000
O600        O  0.24685112  0.65601511  0.17952189    -0.72500
O601        O  0.29514979  0.74858444  0.21491064    -0.71900
O602        O  0.24209456  0.68105337  0.28954184    -0.72700
O603        O  0.28176041  0.72048555  0.17339115    -0.72100
O604        O  0.27421305  0.72092110  0.28343368    -0.72500
O605        O  0.23862359  0.78387941  0.25712573    -0.72400
O606        O  0.18880892  0.77990800  0.24278774    -0.72200
C607        C  0.14989093  0.68538340  0.25175569     0.79600
C608        C  0.24818320  0.63492039  0.20067477     0.80000
C609        C  0.18737622  0.73835514  0.14941685     0.79000
C610        C  0.30091352  0.73780768  0.18772551     0.79400
C611        C  0.26449955  0.69775714  0.29917951     0.80500
C612        C  0.21088123  0.79507626  0.25569688     0.79600
C613        C  0.18985881  0.76212562  0.09702542    -0.14000
C614        C  0.17297038  0.74982351  0.12012136    -0.29200
H615        H  0.21486794  0.76440293  0.09991750     0.15000
H616        H  0.14771110  0.75064008  0.11856964     0.15600
C617        C  0.12034069  0.67095421  0.26111836    -0.14000
C618        C  0.09572842  0.68760251  0.27166128    -0.29200
H619        H  0.11966719  0.64540490  0.26138521     0.15000
H620        H  0.09722272  0.71297677  0.27408932     0.15600
C621        C  0.26839946  0.59463356  0.16490239    -0.14000
C622        C  0.26114541  0.60338776  0.19385485    -0.29200
H623        H  0.26296042  0.61020890  0.14542970     0.15000
H624        H  0.26486542  0.58702254  0.21305884     0.15600
C625        C  0.49822130  0.58129496  0.27848753    -0.14000
C626        C  0.02460705  0.59813232  0.26877162    -0.29200
H627        H  0.48422617  0.59120986  0.29711349     0.15000
H628        H  0.03947994  0.58863670  0.25062513     0.15600
C629        C  0.35604074  0.51712391  0.20897603    -0.14000
C630        C  0.34002982  0.50407670  0.18535340    -0.29200
H631        H  0.34739397  0.53822941  0.22050933     0.15000
H632        H  0.36515826  0.98698241  0.15803333     0.15600
C633        C  0.10374959  0.93069128  0.26636640    -0.14000
C634        C  0.08282629  0.91526752  0.24890483    -0.29200
H635        H  0.09901824  0.95488610  0.27327675     0.15000
H636        H  0.08622767  0.89032484  0.24425951     0.15600
C637        C  0.17697130  0.84155527  0.26420474    -0.14000
C638        C  0.20411042  0.82626537  0.26984647    -0.29200
H639        H  0.16029590  0.83133482  0.24805431     0.15000
H640        H  0.22157559  0.83676260  0.28489949     0.15600
C641        C  0.00997185  0.01442079  0.12025993    -0.14000
C642        C  0.03310423  0.51686551  0.11180286    -0.29200
H643        H  0.55006354  0.99441319  0.12298165     0.15000
H644        H  0.05192070  0.50616611  0.12551369     0.15600
C645        C  0.18022240  0.84390275  0.01495929    -0.14000
C646        C  0.20758414  0.85793959  0.01993591    -0.29200
H647        H  0.14879154  0.87277604  0.49364045     0.15000
H648        H  0.22541171  0.84674771  0.03453660     0.15600
C649        C  0.28221934  0.99481522  0.07783644    -0.14000
C650        C  0.27537414  0.50724364  0.09202326    -0.29200
H651        H  0.30127234  0.97948682  0.08562924     0.15000
H652        H  0.28285354  0.48321011  0.08714655     0.15600
C653        C  0.17152609  0.94122833  0.36615522    -0.14000
C654        C  0.18764806  0.92426141  0.34503025    -0.29200
H655        H  0.14659505  0.94483915  0.36292630     0.15000
H656        H  0.21197013  0.91819692  0.34946788     0.15600
C657        C  0.11943145  0.52779406  0.49916242    -0.14000
C658        C  0.09873517  0.51995976  0.02084145    -0.29200
H659        H  0.11846247  0.55334754  0.49839692     0.15000
H660        H  0.12564432  0.05685361  0.01764276     0.15600
C661        C  0.26294353  0.56957507  0.41919132    -0.14000
C662        C  0.28053557  0.59124299  0.43342761    -0.29200
H663        H  0.25868491  0.57105904  0.39420989     0.15000
H664        H  0.28729277  0.58822627  0.45774737     0.14800
C665        C  0.27152347  0.66454245  0.34573481    -0.14000
C666        C  0.28024259  0.68948106  0.32887005    -0.29200
H667        H  0.25165093  0.65089996  0.33824295     0.15000
H668        H  0.29999260  0.70331781  0.33630702     0.15600
C669        C  0.07080522  0.78558338  0.50566099    -0.14000
C670        C  0.10402729  0.76100500  0.02090709    -0.29200
H671        H  0.08484965  0.80307268  0.00207925     0.15000
H672        H  0.09857852  0.74559770  0.51612363     0.15600
C673        C  0.02101562  0.70300149  0.36454895    -0.14000
C674        C  0.00699998  0.68482627  0.34316160    -0.29200
H675        H  0.04541011  0.70859633  0.36190911     0.15000
H676        H  0.49171466  0.67382294  0.35060089     0.15600
C677        C  0.52189952  0.62039569  0.00679030    -0.14000
C678        C  0.01631093  0.60140608  0.03570635    -0.29200
H679        H  0.05017192  0.61222618  0.49590419     0.15000
H680        H  0.49257634  0.61267301  0.04477428     0.15600
C681        C  0.37773090  0.66303508  0.44254884    -0.14000
C682        C  0.36006200  0.67211211  0.41801709    -0.29200
H683        H  0.37021244  0.64413820  0.45755509     0.15000
H684        H  0.36751940  0.69140111  0.40345685     0.15600
C685        C  0.43909645  0.76900672  0.07101423    -0.14000
C686        C  0.42003760  0.75519961  0.09135534    -0.29200
H687        H  0.44835524  0.79193041  0.07678582     0.15000
H688        H  0.40938436  0.73304324  0.08518193     0.15600
C689        C  0.44238391  0.82936391  0.17812943    -0.14000
C690        C  0.44596017  0.85727659  0.16417696    -0.29200
H691        H  0.44796609  0.82695388  0.20278936     0.15000
H692        H  0.43737968  0.86062169  0.14044846     0.15600
C693        C  0.33009528  0.74507389  0.17149080    -0.14000
C694        C  0.35289213  0.76199235  0.18436018    -0.29200
H695        H  0.33258905  0.73645461  0.14778511     0.15000
H696        H  0.35026739  0.77094929  0.20792504     0.15600
C697        C  0.41714366  0.84714780  0.43358103    -0.14000
C698        C  0.43086261  0.82296850  0.41855948    -0.29200
H699        H  0.41355743  0.84564513  0.45855420     0.15000
H700        H  0.43217329  0.82341028  0.39328910     0.15600
C701        C  0.33997640  0.93411860  0.42417667    -0.14000
C702        C  0.32500903  0.92845990  0.45070132    -0.29200
H703        H  0.33061395  0.95177975  0.40812207     0.15000
H704        H  0.33452635  0.91184143  0.46768184     0.15600
C705        C  0.41876002  0.92392490  0.34643578    -0.14000
C706        C  0.43774763  0.90780367  0.32752930    -0.29200
H707        H  0.41109713  0.94756142  0.33996957     0.15000
H708        H  0.44470520  0.88374312  0.33308156     0.15600
C709        C  0.41942343  0.88071618  0.90890248     0.82600
N710        N  0.42553700  0.89456180  0.88110534    -0.75700
C711        C  0.40736130  0.91920824  0.87076799     0.85100
N712        N  0.38272048  0.92898373  0.88791260    -0.75600
C713        C  0.37648112  0.91488671  0.91548606     0.85200
N714        N  0.39514794  0.89118385  0.92604014    -0.77300
C715        C  0.41349658  0.78146791  0.62145005     0.82600
N716        N  0.38722444  0.76770854  0.63171884    -0.75700
C717        C  0.37301293  0.77864134  0.65786476     0.85100
N718        N  0.38538046  0.80323857  0.67376073    -0.75600
C719        C  0.41148485  0.81707173  0.66336201     0.85200
N720        N  0.42517462  0.80627736  0.63710576    -0.77300
Zn721      Zn  0.45488429  0.70012494  0.99440683     1.49700
Zn722      Zn  0.45691871  0.72661955  0.92287092     1.49400
Zn723      Zn  0.48167174  0.76859980  0.97954555     1.49100
Zn724      Zn  0.02274615  0.70768206  0.96440638     1.49500
O725        O  0.47766569  0.72578856  0.96395209    -1.81700
O726        O  0.41398639  0.68598683  0.97394599    -0.72300
O727        O  0.44894943  0.77160287  0.90829133    -0.72200
O728        O  0.44908014  0.76048220  0.53171993    -0.71700
O729        O  0.41552285  0.70553532  0.92578207    -0.72400
O730        O  0.44124169  0.70933758  0.53856580    -0.72000
O731        O  0.46379339  0.80004777  0.94914030    -0.72500
O732        O  0.05469890  0.73470334  0.98473334    -0.71900
O733        O  0.48254307  0.70439278  0.88944922    -0.72700
O734        O  0.02877190  0.77963253  0.99224595    -0.72100
O735        O  0.03316353  0.70266049  0.91903424    -0.72500
O736        O  0.02771074  0.66565881  0.98365286    -0.72400
O737        O  0.48789461  0.65414019  0.50873812    -0.72200
C738        C  0.40169522  0.69029245  0.94695254     0.79600
C739        C  0.45227976  0.79807564  0.92172922     0.80000
C740        C  0.43881195  0.73775114  0.54774449     0.79000
C741        C  0.05382545  0.76330288  0.99331027     0.79400
C742        C  0.51174514  0.69871282  0.88862510     0.80500
C743        C  0.50782495  0.65067466  0.99646597     0.79600
C744        C  0.28483066  0.66504639  0.86652703     0.82600
N745        N  0.27456779  0.63932209  0.88164866    -0.75700
C746        C  0.28894650  0.62890576  0.90813927     0.85100
N747        N  0.31430204  0.64414977  0.91932575    -0.75600
C748        C  0.32534198  0.66955202  0.90388627     0.85200
N749        N  0.31041302  0.67998316  0.87756515    -0.77300
Zn750      Zn  0.23437383  0.98115734  0.93368745     1.49700
Zn751      Zn  0.25687285  0.94313457  0.99454166     1.49400
Zn752      Zn  0.21443682  0.52466360  0.98045228     1.49100
Zn753      Zn  0.18489128  0.94782788  0.97526461     1.49500
O754        O  0.22397034  0.97026851  0.97594321    -1.81700
O755        O  0.27648411  0.96518207  0.92315505    -0.72300
O756        O  0.25486563  0.99021809  0.53767029    -0.72200
O757        O  0.23657314  0.55490913  0.95248449    -0.71700
O758        O  0.29251232  0.93772139  0.96465299    -0.72400
O759        O  0.24865036  0.52481068  0.91191812    -0.72000
O760        O  0.23741853  0.51497188  0.53360045    -0.72500
O761        O  0.15294247  0.97138752  0.99999418    -0.71900
O762        O  0.22097086  0.92432309  0.51679977    -0.72700
O763        O  0.16948364  0.53831352  0.98562384    -0.72100
O764        O  0.19052910  0.90512766  0.99477407    -0.72500
O765        O  0.16798128  0.94192302  0.93135987    -0.72400
O766        O  0.20512220  0.96318433  0.90322675    -0.72200
C767        C  0.29685196  0.94841505  0.93731369     0.79600
C768        C  0.24973521  0.01949357  0.54201957     0.80000
C769        C  0.24829452  0.55138445  0.92560051     0.79000
C770        C  0.15176300  0.99866480  0.01212438     0.79400
C771        C  0.21333703  0.88936437  0.00644774     0.80500
C772        C  0.17965912  0.94874615  0.90516483     0.79600
C773        C  0.03905767  0.52763552  0.57503440     0.82600
N774        N  0.02427564  0.55403947  0.56431717    -0.75700
C775        C  0.03340014  0.56804719  0.53760709     0.85100
N776        N  0.05752340  0.55514388  0.52117120    -0.75600
C777        C  0.07190447  0.52810874  0.53151010     0.85200
N778        N  0.06267051  0.51473209  0.55848857    -0.77300
C779        C  0.12768331  0.92100597  0.78313843     0.82600
N780        N  0.14027802  0.93460713  0.80884055    -0.75700
C781        C  0.16682835  0.92258296  0.82177277     0.85100
N782        N  0.18106165  0.89724043  0.80888405    -0.75600
C783        C  0.16844356  0.88302648  0.78366408     0.85200
N784        N  0.14152684  0.89482331  0.77074085    -0.77300
Zn785      Zn  0.01038349  0.99088157  0.72342554     1.49700
Zn786      Zn  0.45164809  0.96547089  0.67596693     1.49400
Zn787      Zn  0.47758550  0.92934722  0.73230806     1.49100
Zn788      Zn  0.44059520  0.99444677  0.74479636     1.49500
O789        O  0.46949110  0.97146763  0.71698191    -1.81700
O790        O  0.01643274  0.00429946  0.67834315    -0.72300
O791        O  0.45054798  0.92053975  0.66176057    -0.72200
O792        O  0.02379587  0.91633111  0.74571326    -0.71700
O793        O  0.47252336  0.99117055  0.64414019    -0.72400
O794        O  0.04618587  0.96226334  0.73720121    -0.72000
O795        O  0.45754822  0.89579380  0.70678809    -0.72500
O796        O  0.43248919  0.96745371  0.78404574    -0.71900
O797        O  0.40803538  0.97966208  0.67586729    -0.72700
O798        O  0.46157822  0.92472646  0.77470680    -0.72100
O799        O  0.40134767  0.51201475  0.72708818    -0.72500
O800        O  0.46637586  0.53157124  0.76042490    -0.72400
O801        O  0.01020089  0.53281676  0.73784504    -0.72200
C802        C  0.49864897  0.00449949  0.64351725     0.79600
C803        C  0.44992810  0.89570254  0.67812580     0.80000
C804        C  0.04785216  0.93322250  0.74463303     0.79000
C805        C  0.44370035  0.94053536  0.79224238     0.79400
C806        C  0.39024100  0.99502233  0.69385489     0.80500
C807        C  0.49313969  0.54134603  0.75319572     0.79600
C808        C  0.27165130  0.53898085  0.62485342     0.82600
N809        N  0.29506876  0.52073627  0.63683861    -0.75700
C810        C  0.30958618  0.52881689  0.66369191     0.85100
N811        N  0.30052063  0.55540408  0.67888944    -0.75600
C812        C  0.27726573  0.57386997  0.66685405     0.85200
N813        N  0.26303626  0.56574351  0.63968853    -0.77300
C814        C  0.07254533  0.66506136  0.77903527     0.82600
N815        N  0.05680257  0.67703995  0.80372332    -0.75700
C816        C  0.03231842  0.66146968  0.81565342     0.85100
N817        N  0.02330545  0.63407826  0.80237330    -0.75600
C818        C  0.03900450  0.62177352  0.77772981     0.85200
N819        N  0.06375021  0.63727005  0.76625073    -0.77300
C820        C  0.15603984  0.83318607  0.52631354     0.82600
N821        N  0.13129168  0.81722467  0.51485781    -0.75700
C822        C  0.12398291  0.78879863  0.52694234     0.85100
N823        N  0.14117272  0.77659092  0.55085298    -0.75600
C824        C  0.16562091  0.79253452  0.56287541     0.85200
N825        N  0.17320473  0.82070654  0.55036158    -0.77300
Zn826      Zn  0.17627864  0.74242907  0.70990050     1.49700
Zn827      Zn  0.22055933  0.68879618  0.73733536     1.49400
Zn828      Zn  0.23935439  0.72740784  0.67668532     1.49100
Zn829      Zn  0.24169171  0.76000857  0.74355996     1.49500
O830        O  0.21956835  0.72982592  0.71726223    -1.81700
O831        O  0.14621265  0.71250282  0.72966386    -0.72300
O832        O  0.24058374  0.65687266  0.70972663    -0.72200
O833        O  0.21309468  0.74784177  0.64252565    -0.71700
O834        O  0.17739927  0.67343119  0.74597040    -0.72400
O835        O  0.16632024  0.74675552  0.66397968    -0.72000
O836        O  0.24677898  0.68235007  0.66496587    -0.72500
O837        O  0.28160948  0.77354078  0.72285216    -0.71900
O838        O  0.24409175  0.68978370  0.77808167    -0.72700
O839        O  0.28118382  0.74743950  0.67797028    -0.72100
O840        O  0.25584577  0.74004344  0.78480048    -0.72500
O841        O  0.21332408  0.79806078  0.75100375    -0.72400
O842        O  0.16863081  0.78512853  0.72783657    -0.72200
C843        C  0.15036386  0.68567826  0.74243891     0.79600
C844        C  0.24802994  0.65730199  0.68113825     0.80000
C845        C  0.18365129  0.75149989  0.64067394     0.79000
C846        C  0.29458938  0.76538858  0.69747951     0.79400
C847        C  0.25619945  0.71159856  0.79427308     0.80500
C848        C  0.18507425  0.80438579  0.74319923     0.79600
C849        C  0.18270682  0.78023162  0.59050335    -0.14000
C850        C  0.16871121  0.76153794  0.61114489    -0.29200
H851        H  0.20601929  0.78860201  0.59530109     0.15000
H852        H  0.14445001  0.75553614  0.60757095     0.15600
C853        C  0.12344074  0.66804701  0.75349370    -0.14000
C854        C  0.09871666  0.68265069  0.76618945    -0.29200
H855        H  0.12495639  0.64250358  0.75333458     0.15000
H856        H  0.09861467  0.70805103  0.76906471     0.15600
C857        C  0.26845134  0.60319813  0.68249412    -0.14000
C858        C  0.25781424  0.62800130  0.66601857    -0.29200
H859        H  0.27184061  0.60486270  0.70757857     0.15000
H860        H  0.25680818  0.62698369  0.64070809     0.15600
C861        C  0.50382399  0.57105167  0.76774473    -0.14000
C862        C  0.02949034  0.59175567  0.76331643    -0.29200
H863        H  0.48879738  0.58137477  0.78532751     0.15000
H864        H  0.04352075  0.58223166  0.74451752     0.15600
C865        C  0.35567051  0.51955768  0.69711957    -0.14000
C866        C  0.33718406  0.51047414  0.67359389    -0.29200
H867        H  0.34907457  0.53950426  0.71159472     0.15000
H868        H  0.35112538  0.04384940  0.70710737     0.15600
C869        C  0.09931761  0.93536457  0.76926232    -0.14000
C870        C  0.07809753  0.91875524  0.75351738    -0.29200
H871        H  0.09434057  0.95990778  0.77472573     0.15000
H872        H  0.08146341  0.89354706  0.75049837     0.15600
C873        C  0.18409624  0.85445957  0.77179271    -0.14000
C874        C  0.17027420  0.83454086  0.75213565    -0.29200
H875        H  0.20706980  0.84863814  0.78124710     0.15000
H876        H  0.14684921  0.83970798  0.74350724     0.15600
C877        C  0.00594421  0.02084584  0.62596179    -0.14000
C878        C  0.03043599  0.51351355  0.60500174    -0.29200
H879        H  0.48836077  0.02980686  0.59999416     0.15000
H880        H  0.04778825  0.49947875  0.61766465     0.15600
C881        C  0.16348635  0.86408427  0.51267286    -0.14000
C882        C  0.18760032  0.88125673  0.52268654    -0.29200
H883        H  0.16320653  0.85495305  0.99929096     0.15000
H884        H  0.20258929  0.87238195  0.54140302     0.15600
C885        C  0.26030248  0.03503840  0.57076477    -0.14000
C886        C  0.25702826  0.53087151  0.59496216    -0.29200
H887        H  0.25267758  0.05932095  0.57393534     0.15000
H888        H  0.24164673  0.54803773  0.58359847     0.15600
C889        C  0.16399946  0.93911349  0.87619320    -0.14000
C890        C  0.18030264  0.93627047  0.84985698    -0.29200
H891        H  0.13982538  0.93209760  0.87681442     0.15000
H892        H  0.20519784  0.94030797  0.84997611     0.15600
C893        C  0.11726753  0.53658033  0.00236931    -0.14000
C894        C  0.09726405  0.51225718  0.51419995    -0.29200
H895        H  0.11356290  0.56178671  0.99967579     0.15000
H896        H  0.10866698  0.99959527  0.53077030     0.15600
C897        C  0.26134708  0.57866282  0.90946591    -0.14000
C898        C  0.27689993  0.60128399  0.92470423    -0.29200
H899        H  0.25921834  0.57948214  0.88422001     0.15000
H900        H  0.28148785  0.59906622  0.94957060     0.14800
C901        C  0.26873557  0.67502404  0.83744142    -0.14000
C902        C  0.27169029  0.70358024  0.82437418    -0.29200
H903        H  0.25337434  0.65808352  0.82659862     0.15000
H904        H  0.28583860  0.72120663  0.83577571     0.15600
C905        C  0.08236624  0.77786894  0.00503042    -0.14000
C906        C  0.09734817  0.77111487  0.51484440    -0.29200
H907        H  0.06850964  0.81102250  0.50727961     0.15000
H908        H  0.10015537  0.73638840  0.02612812     0.15600
C909        C  0.03084901  0.69001191  0.86554726    -0.14000
C910        C  0.01598211  0.67346996  0.84343510    -0.29200
H911        H  0.05548507  0.69466061  0.86309353     0.15000
H912        H  0.48911500  0.66109387  0.84275695     0.15600
C913        C  0.53214476  0.61905594  0.51102263    -0.14000
C914        C  0.01654483  0.59708488  0.52740165    -0.29200
H915        H  0.04824238  0.61239776  0.00097472     0.15000
H916        H  0.49667501  0.60389509  0.54047682     0.15600
C917        C  0.37085234  0.67673445  0.93979675    -0.14000
C918        C  0.35462680  0.68469305  0.91377150    -0.29200
H919        H  0.36164022  0.65961044  0.95586763     0.15000
H920        H  0.36365063  0.70251804  0.89832979     0.15600
C921        C  0.42363582  0.74463932  0.57768690    -0.14000
C922        C  0.42837727  0.77212737  0.59214978    -0.29200
H923        H  0.40905044  0.72700469  0.58811819     0.15000
H924        H  0.44449939  0.78871857  0.58229872     0.15600
C925        C  0.42378758  0.84490925  0.67924730    -0.14000
C926        C  0.43966637  0.86651313  0.66343015    -0.29200
H927        H  0.41801187  0.84883232  0.70355107     0.15000
H928        H  0.44292659  0.86396836  0.63846632     0.15600
C929        C  0.32590071  0.77713758  0.69060736    -0.14000
C930        C  0.34287436  0.76550108  0.66691567    -0.29200
H931        H  0.33503938  0.79576950  0.70521657     0.15000
H932        H  0.33378365  0.74651603  0.65272192     0.15600
C933        C  0.43820269  0.85425627  0.92118792    -0.14000
C934        C  0.44137868  0.82704257  0.90557702    -0.29200
H935        H  0.44440961  0.85518533  0.94578580     0.15000
H936        H  0.43275551  0.82532257  0.88173252     0.15600
C937        C  0.34875642  0.92363763  0.93336629    -0.14000
C938        C  0.32591400  0.94155620  0.92093208    -0.29200
H939        H  0.34628387  0.91361589  0.95647849     0.15000
H940        H  0.32814113  0.95096247  0.89753056     0.15600
C941        C  0.41381909  0.93565711  0.84119597    -0.14000
C942        C  0.43683955  0.92607752  0.82255664    -0.29200
H943        H  0.39909159  0.95562196  0.83445461     0.15000
H944        H  0.45088365  0.90555463  0.82912556     0.15600
C945        C  0.91171534  0.37753424  0.41420117     0.82600
N946        N  0.92448002  0.39019618  0.38819685    -0.75700
C947        C  0.91254321  0.41774831  0.37644597     0.85100
N948        N  0.88788326  0.43179563  0.39008996    -0.75600
C949        C  0.87501932  0.41923624  0.41553413     0.85200
N950        N  0.88708640  0.39222762  0.42785747    -0.77300
C951        C  0.90643475  0.29350049  0.12176148     0.82600
N952        N  0.87940396  0.28033750  0.13067629    -0.75700
C953        C  0.86287062  0.29280952  0.15465330     0.85100
N954        N  0.87347950  0.31885045  0.16963600    -0.75600
C955        C  0.90076864  0.33184038  0.16098046     0.85200
N956        N  0.91691196  0.31920967  0.13692348    -0.77300
Zn957      Zn  0.95180925  0.19145560  0.49397996     1.49700
Zn958      Zn  0.95570909  0.22365441  0.42534103     1.49400
Zn959      Zn  0.97123518  0.26334903  0.48632441     1.49100
Zn960      Zn  0.52245743  0.21035910  0.45779234     1.49500
O961        O  0.97361671  0.22155385  0.46747973    -1.81700
O962        O  0.91399088  0.17573854  0.47039184    -0.72300
O963        O  0.94669626  0.26901023  0.41227881    -0.72200
O964        O  0.94372103  0.26620248  0.03410509    -0.71700
O965        O  0.91519078  0.20062667  0.42468761    -0.72400
O966        O  0.93633891  0.21561114  0.04481500    -0.72000
O967        O  0.95309048  0.29535477  0.45658028    -0.72500
O968        O  0.55505967  0.23593277  0.47967343    -0.71900
O969        O  0.98473779  0.20400132  0.39325019    -0.72700
O970        O  0.52899833  0.28045623  0.48905616    -0.72100
O971        O  0.53216270  0.20599941  0.41214283    -0.72500
O972        O  0.52680505  0.16731585  0.47500451    -0.72400
O973        O  0.98146979  0.15741887  0.01635918    -0.72200
C974        C  0.90199584  0.18233665  0.44379435     0.79600
C975        C  0.94562281  0.29456691  0.42778448     0.80000
C976        C  0.93406318  0.24465013  0.05202441     0.79000
C977        C  0.55399716  0.26405110  0.48973783     0.79400
C978        C  0.01420419  0.19980061  0.39397551     0.80500
C979        C  0.00867035  0.14788123  0.49976524     0.79600
C980        C  0.78476385  0.15920143  0.36381111     0.82600
N981        N  0.77419881  0.13389945  0.37934427    -0.75700
C982        C  0.78892283  0.12350084  0.40559917     0.85100
N983        N  0.81476566  0.13820169  0.41608058    -0.75600
C984        C  0.82607865  0.16309153  0.40017406     0.85200
N985        N  0.81088452  0.17367094  0.37412770    -0.77300
Zn986      Zn  0.74466400  0.47412831  0.43619675     1.49700
Zn987      Zn  0.75034353  0.44806080  0.50514095     1.49400
Zn988      Zn  0.71604704  0.02145662  0.48007341     1.49100
Zn989      Zn  0.68384898  0.45375047  0.47191690     1.49500
O990        O  0.72456361  0.47315445  0.47618724    -1.81700
O991        O  0.78646692  0.45369828  0.43927710    -0.72300
O992        O  0.75582353  0.47813247  0.03039765    -0.72200
O993        O  0.73759364  0.05041792  0.45085798    -0.71700
O994        O  0.78989766  0.43253648  0.48646797    -0.72400
O995        O  0.75393571  0.01862960  0.41307897    -0.72000
O996        O  0.73984967  0.01486380  0.03897454    -0.72500
O997        O  0.65054575  0.48480264  0.48637514    -0.71900
O998        O  0.71797941  0.41596169  0.01023141    -0.72700
O999        O  0.67054108  0.03351372  0.48158970    -0.72100
O1000       O  0.68235142  0.41347293  0.49807043    -0.72500
O1001       O  0.67544387  0.44103547  0.42673536    -0.72400
O1002       O  0.72079722  0.45031415  0.40436746    -0.72200
C1003       C  0.80119128  0.43763466  0.45986482     0.79600
C1004       C  0.74920455  0.50623117  0.03851886     0.80000
C1005       C  0.75070179  0.04594043  0.42478854     0.79000
C1006       C  0.65086710  0.51370691  0.49457317     0.79400
C1007       C  0.70212463  0.39941628  0.51597835     0.80500
C1008       C  0.69344063  0.43961811  0.40331001     0.79600
C1009       C  0.52221350  0.02403472  0.07550064     0.82600
N1010       N  0.50957896  0.05097577  0.06387888    -0.75700
C1011       C  0.52403002  0.06690383  0.04107070     0.85100
N1012       N  0.55138495  0.05539224  0.02939503    -0.75600
C1013       C  0.56371597  0.02774594  0.04056588     0.85200
N1014       N  0.54909801  0.01233180  0.06364148    -0.77300
C1015       C  0.60994200  0.40055971  0.29368916     0.82600
N1016       N  0.61855182  0.41609159  0.31998308    -0.75700
C1017       C  0.64512453  0.40741569  0.33544674     0.85100
N1018       N  0.66309623  0.38326979  0.32436702    -0.75600
C1019       C  0.65427737  0.36754758  0.29830153     0.85200
N1020       N  0.62750753  0.37615826  0.28328641    -0.77300
Zn1021     Zn  0.50669938  0.49815249  0.22047735     1.49700
Zn1022     Zn  0.95054475  0.46765068  0.19073541     1.49400
Zn1023     Zn  0.98908835  0.43062302  0.24092225     1.49100
Zn1024     Zn  0.94894343  0.49467668  0.25948360     1.49500
O1025       O  0.97502441  0.47297029  0.22843733    -1.81700
O1026       O  0.51243784  0.50828305  0.17486426    -0.72300
O1027       O  0.94163720  0.42251333  0.18102011    -0.72200
O1028       O  0.52412755  0.42834175  0.25065390    -0.71700
O1029       O  0.97088280  0.48837426  0.15491978    -0.72400
O1030       O  0.54371412  0.47475059  0.23877859    -0.72000
O1031       O  0.97423848  0.39610421  0.21231877    -0.72500
O1032       O  0.94454148  0.46424040  0.29549066    -0.71900
O1033       O  0.90949373  0.48801437  0.19399999    -0.72700
O1034       O  0.97169527  0.42107134  0.28234807    -0.72100
O1035       O  0.90908698  0.00467412  0.23598573    -0.72500
O1036       O  0.97371656  0.02765126  0.26958059    -0.72400
O1037       O  0.51359534  0.02266086  0.24246014    -0.72200
C1038       C  0.99648292  0.50247568  0.15206698     0.79600
C1039       C  0.95342831  0.39676379  0.19101227     0.80000
C1040       C  0.54665730  0.44731615  0.25034751     0.79000
C1041       C  0.95459944  0.43626381  0.30121480     0.79400
C1042       C  0.89404484  0.50271778  0.21450707     0.80500
C1043       C  0.99951692  0.03972909  0.26214495     0.79600
C1044       C  0.78502998  0.03811863  0.12512129     0.82600
N1045       N  0.80889328  0.02054446  0.13735151    -0.75700
C1046       C  0.82287583  0.02914720  0.16456110     0.85100
N1047       N  0.81283821  0.05562060  0.17959193    -0.75600
C1048       C  0.78924384  0.07351029  0.16711133     0.85200
N1049       N  0.77555891  0.06463253  0.13993813    -0.77300
C1050       C  0.57028262  0.15706540  0.27696657     0.82600
N1051       N  0.55415548  0.17084261  0.30041209    -0.75700
C1052       C  0.52976712  0.15613469  0.31351686     0.85100
N1053       N  0.52105138  0.12755254  0.30249671    -0.75600
C1054       C  0.53706414  0.11350831  0.27889424     0.85200
N1055       N  0.56182015  0.12828425  0.26639315    -0.77300
C1056       C  0.64770986  0.33145223  0.03028851     0.82600
N1057       N  0.62190752  0.31640571  0.02025632    -0.75700
C1058       C  0.61407741  0.28854187  0.03307279     0.85100
N1059       N  0.63189801  0.27590330  0.05628389    -0.75600
C1060       C  0.65748527  0.29096430  0.06694665     0.85200
N1061       N  0.66556593  0.31863919  0.05367757    -0.77300
Zn1062     Zn  0.67334898  0.23649400  0.21180866     1.49700
Zn1063     Zn  0.71910112  0.18326781  0.23638077     1.49400
Zn1064     Zn  0.73695954  0.22453650  0.17663976     1.49100
Zn1065     Zn  0.73838499  0.25585022  0.24447719     1.49500
O1066       O  0.71715915  0.22512536  0.21746819    -1.81700
O1067       O  0.64440306  0.20446946  0.22952445    -0.72300
O1068       O  0.74209955  0.15278771  0.20894328    -0.72200
O1069       O  0.70804279  0.24225027  0.14290553    -0.71700
O1070       O  0.67631125  0.16564117  0.24471556    -0.72400
O1071       O  0.66238685  0.24390689  0.16675825    -0.72000
O1072       O  0.74998450  0.17998258  0.16547939    -0.72500
O1073       O  0.77490359  0.27557991  0.22247336    -0.71900
O1074       O  0.74225470  0.18477380  0.27706543    -0.72700
O1075       O  0.77566968  0.25068155  0.17694896    -0.72100
O1076       O  0.75626362  0.23451803  0.28311353    -0.72500
O1077       O  0.70814931  0.29030242  0.25796346    -0.72400
O1078       O  0.66426313  0.27668132  0.23381318    -0.72200
C1079       C  0.64898791  0.17738139  0.24152986     0.79600
C1080       C  0.75192658  0.15454460  0.18115641     0.80000
C1081       C  0.67874199  0.24745675  0.14256742     0.79000
C1082       C  0.78739597  0.27011833  0.19619580     0.79400
C1083       C  0.75585128  0.20615127  0.29258977     0.80500
C1084       C  0.67945933  0.29515083  0.25129397     0.79600
C1085       C  0.67569178  0.27791121  0.09353147    -0.14000
C1086       C  0.66275966  0.25807860  0.11383076    -0.29200
H1087       H  0.69904818  0.28640904  0.09783284     0.15000
H1088       H  0.63847591  0.25185862  0.11094037     0.15600
C1089       C  0.62216123  0.15933284  0.25253786    -0.14000
C1090       C  0.59642238  0.17401137  0.26316094    -0.29200
H1091       H  0.62447597  0.13388594  0.25424011     0.15000
H1092       H  0.59550567  0.19957093  0.26408160     0.15600
C1093       C  0.77839743  0.10249527  0.18272737    -0.14000
C1094       C  0.76520423  0.12627623  0.16626460    -0.29200
H1095       H  0.78149899  0.10449107  0.20780799     0.15000
H1096       H  0.76440109  0.12515489  0.14096864     0.15600
C1097       C  0.00881264  0.06970514  0.27695790    -0.14000
C1098       C  0.52836674  0.08228137  0.26655280    -0.29200
H1099       H  0.99351819  0.07987324  0.29439303     0.15000
H1100       H  0.54289743  0.07248929  0.24827834     0.15600
C1101       C  0.86588781  0.01665626  0.20236686    -0.14000
C1102       C  0.85048920  0.01093650  0.17550418    -0.29200
H1103       H  0.85685306  0.03397711  0.21870078     0.15000
H1104       H  0.85846072  0.48181403  0.16920390     0.15600
C1105       C  0.58123603  0.40907712  0.27684769    -0.14000
C1106       C  0.57636446  0.43811022  0.26546508    -0.29200
H1107       H  0.56455395  0.39066736  0.27243133     0.15000
H1108       H  0.59410228  0.45579283  0.26848269     0.15600
C1109       C  0.67331267  0.34094966  0.28659820    -0.14000
C1110       C  0.66251721  0.32265396  0.26353689    -0.29200
H1111       H  0.69583933  0.33589051  0.29742296     0.15000
H1112       H  0.63947796  0.32725340  0.25363246     0.15600
C1113       C  0.50043783  0.52453808  0.12292850    -0.14000
C1114       C  0.50756745  0.00895990  0.10208624    -0.29200
H1115       H  0.98471338  0.52364788  0.10658099     0.15000
H1116       H  0.48266757  0.01247963  0.10508629     0.15600
C1117       C  0.65572000  0.36143975  0.01537211    -0.14000
C1118       C  0.68250615  0.37608857  0.02134125    -0.29200
H1119       H  0.65485620  0.36148705  0.50387591     0.15000
H1120       H  0.69927469  0.36586613  0.03776642     0.15600
C1121       C  0.76144114  0.51929029  0.06771293    -0.14000
C1122       C  0.76940049  0.02949883  0.09567620    -0.29200
H1123       H  0.75326107  0.54285776  0.07356504     0.15000
H1124       H  0.75163255  0.04576145  0.08674856     0.15600
C1125       C  0.68351698  0.42434483  0.37422576    -0.14000
C1126       C  0.65378152  0.42350077  0.36463223    -0.29200
H1127       H  0.70166445  0.41445935  0.35953213     0.15000
H1128       H  0.63574640  0.43551286  0.37788503     0.15600
C1129       C  0.61643485  0.03274978  0.49003735    -0.14000
C1130       C  0.59208151  0.01313364  0.02760826    -0.29200
H1131       H  0.61331352  0.05792599  0.48645682     0.15000
H1132       H  0.59959147  0.49665900  0.02561058     0.15600
C1133       C  0.76256531  0.07296894  0.40771414    -0.14000
C1134       C  0.77694263  0.09643312  0.42264007    -0.29200
H1135       H  0.76109724  0.07276005  0.38240968     0.15000
H1136       H  0.78110032  0.09506019  0.44764778     0.14800
C1137       C  0.76822635  0.16944355  0.33526236    -0.14000
C1138       C  0.77205297  0.19769903  0.32200919    -0.29200
H1139       H  0.75183191  0.15309768  0.32507215     0.15000
H1140       H  0.78728543  0.21476434  0.33281934     0.15600
C1141       C  0.58202310  0.27838509  0.50279449    -0.14000
C1142       C  0.58712645  0.27125753  0.02139647    -0.29200
H1143       H  0.56101055  0.31129365  0.00687475     0.15000
H1144       H  0.59951642  0.23737338  0.52525334     0.15600
C1145       C  0.52814002  0.19092605  0.35940614    -0.14000
C1146       C  0.51365835  0.17047921  0.34044225    -0.29200
H1147       H  0.55221347  0.19681864  0.35514600     0.15000
H1148       H  0.99409911  0.16304843  0.34723360     0.15600
C1149       C  0.02796729  0.12513954  0.01863821    -0.14000
C1150       C  0.50924830  0.09646434  0.02996517    -0.29200
H1151       H  0.54630612  0.11230675  0.48875487     0.15000
H1152       H  0.99529122  0.10731486  0.04988493     0.15600
C1153       C  0.87195287  0.16829957  0.43514557    -0.14000
C1154       C  0.85551555  0.17776708  0.40983397    -0.29200
H1155       H  0.86308732  0.15000382  0.45010696     0.15000
H1156       H  0.86416406  0.19652772  0.39530322     0.15600
C1157       C  0.91910085  0.25362127  0.08155994    -0.14000
C1158       C  0.92329055  0.28215428  0.09417800    -0.29200
H1159       H  0.90425354  0.23677272  0.09286028     0.15000
H1160       H  0.93959771  0.29814529  0.08369278     0.15600
C1161       C  0.91205600  0.36056844  0.17627119    -0.14000
C1162       C  0.94255770  0.36705893  0.17768845    -0.29200
H1163       H  0.89514957  0.37662549  0.18663833     0.15000
H1164       H  0.95980484  0.34986369  0.16993898     0.15600
C1165       C  0.81636552  0.28650577  0.18814782    -0.14000
C1166       C  0.83328718  0.27800943  0.16321944    -0.29200
H1167       H  0.82436953  0.30511041  0.20346281     0.15000
H1168       H  0.82551135  0.25876307  0.14857229     0.15600
C1169       C  0.92431738  0.34849537  0.42859090    -0.14000
C1170       C  0.93536002  0.32398590  0.41206326    -0.29200
H1171       H  0.92198424  0.34627163  0.45368107     0.15000
H1172       H  0.93532666  0.32499702  0.38676368     0.15600
C1173       C  0.84669249  0.43417913  0.42726525    -0.14000
C1174       C  0.83179126  0.42412729  0.45239402    -0.29200
H1175       H  0.83698341  0.45362269  0.41359353     0.15000
H1176       H  0.84164742  0.40545875  0.46694232     0.15600
C1177       C  0.92484683  0.43331513  0.34893065    -0.14000
C1178       C  0.94589694  0.42030754  0.33012760    -0.29200
H1179       H  0.91470144  0.45623650  0.34314639     0.15000
H1180       H  0.95564107  0.39705344  0.33514625     0.15600
C1181       C  0.89677134  0.36740222  0.90842370     0.82600
N1182       N  0.91126936  0.37526074  0.88166180    -0.75700
C1183       C  0.90032802  0.39961315  0.86409047     0.85100
N1184       N  0.87422088  0.41562299  0.87292004    -0.75600
C1185       C  0.85939662  0.40764722  0.89941784     0.85200
N1186       N  0.87098498  0.38372276  0.91733253    -0.77300
C1187       C  0.90764797  0.28666741  0.61506990     0.82600
N1188       N  0.88326713  0.27029286  0.62621859    -0.75700
C1189       C  0.86985144  0.27871857  0.65358275     0.85100
N1190       N  0.88124043  0.30346304  0.66998504    -0.75600
C1191       C  0.90531728  0.32017643  0.65887062     0.85200
N1192       N  0.91826135  0.31186176  0.63124873    -0.77300
Zn1193     Zn  0.95065734  0.19330488  0.00555086     1.49700
Zn1194     Zn  0.95032825  0.22125780  0.93658323     1.49400
Zn1195     Zn  0.96636700  0.26645481  0.99348069     1.49100
Zn1196     Zn  0.51361408  0.20792445  0.96632145     1.49500
O1197       O  0.96989606  0.22358958  0.97736892    -1.81700
O1198       O  0.91112032  0.17601608  0.98585360    -0.72300
O1199       O  0.94006501  0.26439812  0.92070746    -0.72200
O1200       O  0.94620123  0.26336302  0.52564714    -0.71700
O1201       O  0.91012948  0.19858914  0.93910827    -0.72400
O1202       O  0.93535495  0.21301173  0.53307956    -0.72000
O1203       O  0.94389480  0.29490688  0.96269405    -0.72500
O1204       O  0.54099159  0.23995011  0.98602925    -0.71900
O1205       O  0.97795670  0.20065163  0.90462353    -0.72700
O1206       O  0.50873702  0.27968477  0.99779289    -0.72100
O1207       O  0.52489199  0.20331641  0.92087127    -0.72500
O1208       O  0.52359807  0.16609438  0.98591597    -0.72400
O1209       O  0.98040649  0.15419451  0.50671934    -0.72200
C1210       C  0.89765108  0.18159220  0.95974332     0.79600
C1211       C  0.93685877  0.29090854  0.93404940     0.80000
C1212       C  0.93430280  0.24167289  0.54184609     0.79000
C1213       C  0.53598144  0.26753453  0.99660049     0.79400
C1214       C  0.00753748  0.20015596  0.90333149     0.80500
C1215       C  0.00987996  0.15315429  0.00864221     0.79600
C1216       C  0.77705740  0.16330710  0.88416382     0.82600
N1217       N  0.76467225  0.13969049  0.90077532    -0.75700
C1218       C  0.77876747  0.12905268  0.92731838     0.85100
N1219       N  0.80585311  0.14201367  0.93712778    -0.75600
C1220       C  0.81867621  0.16556403  0.92037740     0.85200
N1221       N  0.80418397  0.17611113  0.89394577    -0.77300
Zn1222     Zn  0.73228362  0.47757097  0.92356246     1.49700
Zn1223     Zn  0.74095392  0.45278435  0.99356776     1.49400
Zn1224     Zn  0.71516613  0.01638609  0.99893265     1.49100
Zn1225     Zn  0.67237240  0.46068835  0.96351501     1.49500
O1226       O  0.71420450  0.47777532  0.96515692    -1.81700
O1227       O  0.77141432  0.45090293  0.92257520    -0.72300
O1228       O  0.76222672  0.47329161  0.54171815    -0.72200
O1229       O  0.73340846  0.05068496  0.97277562    -0.71700
O1230       O  0.77843405  0.43524031  0.97160623    -0.72400
O1231       O  0.73244782  0.02911731  0.92561210    -0.72000
O1232       O  0.73313077  0.02999973  0.52256244    -0.72500
O1233       O  0.64110700  0.49121873  0.98255968    -0.71900
O1234       O  0.72893063  0.41040111  0.52098565    -0.72700
O1235       O  0.67058659  0.02897002  0.00818449    -0.72100
O1236       O  0.67109176  0.41981782  0.98784519    -0.72500
O1237       O  0.65944304  0.45195988  0.91869379    -0.72400
O1238       O  0.70219484  0.46065504  0.89141069    -0.72200
C1239       C  0.78718704  0.43620959  0.94344449     0.79600
C1240       C  0.75747493  0.50162675  0.54978339     0.80000
C1241       C  0.73696231  0.05249097  0.94344714     0.79000
C1242       C  0.64190735  0.52051866  0.98889948     0.79400
C1243       C  0.69079250  0.40553915  0.00557567     0.80500
C1244       C  0.67403253  0.45197022  0.89300249     0.79600
C1245       C  0.54324575  0.03381454  0.57344113     0.82600
N1246       N  0.52717066  0.05957700  0.56298444    -0.75700
C1247       C  0.53404526  0.07279252  0.53520039     0.85100
N1248       N  0.55714131  0.05970713  0.51747405    -0.75600
C1249       C  0.57281843  0.03336797  0.52764171     0.85200
N1250       N  0.56588169  0.02080409  0.55569756    -0.77300
C1251       C  0.61374650  0.41253583  0.77954560     0.82600
N1252       N  0.62959139  0.42607403  0.80344309    -0.75700
C1253       C  0.65622217  0.41233897  0.81479201     0.85100
N1254       N  0.66713200  0.38519247  0.80180880    -0.75600
C1255       C  0.65114681  0.37140419  0.77806021     0.85200
N1256       N  0.62445155  0.38508942  0.76718283    -0.77300
Zn1257     Zn  0.50343419  0.48442299  0.71098077     1.49700
Zn1258     Zn  0.94192276  0.47168375  0.68206285     1.49400
Zn1259     Zn  0.96727746  0.43040780  0.73785104     1.49100
Zn1260     Zn  0.94169946  0.50035414  0.75070958     1.49500
O1261       O  0.96428049  0.47338492  0.72146134    -1.81700
O1262       O  0.50906516  0.49390957  0.66506189    -0.72300
O1263       O  0.93543353  0.42732986  0.66702148    -0.72200
O1264       O  0.50915301  0.41226225  0.74333499    -0.71700
O1265       O  0.96434934  0.49460565  0.64874245    -0.72400
O1266       O  0.53592613  0.45389778  0.72790027    -0.72000
O1267       O  0.94965749  0.39806564  0.70780366    -0.72500
O1268       O  0.92772999  0.47588971  0.78744027    -0.71900
O1269       O  0.90051838  0.49270488  0.68610274    -0.72700
O1270       O  0.94390684  0.42680196  0.77827799    -0.72100
O1271       O  0.90410988  0.00966798  0.74187011    -0.72500
O1272       O  0.96835407  0.03064324  0.77676407    -0.72400
O1273       O  0.50766311  0.03356305  0.73691411    -0.72200
C1274       C  0.99236163  0.50308620  0.64604325     0.79600
C1275       C  0.93855452  0.40067010  0.68022917     0.80000
C1276       C  0.53465529  0.42666819  0.74026839     0.79000
C1277       C  0.92952185  0.44702301  0.79496365     0.79400
C1278       C  0.88865729  0.51135803  0.70607151     0.80500
C1279       C  0.99402365  0.04304970  0.76936326     0.79600
C1280       C  0.78718669  0.02901592  0.62123486     0.82600
N1281       N  0.80895274  0.01410023  0.63902470    -0.75700
C1282       C  0.82028803  0.02757123  0.66528494     0.85100
N1283       N  0.80940657  0.05654772  0.67409169    -0.75600
C1284       C  0.78729949  0.07171403  0.65616462     0.85200
N1285       N  0.77663409  0.05800039  0.62966050    -0.77300
C1286       C  0.56928436  0.16269326  0.78312444     0.82600
N1287       N  0.55293231  0.17456029  0.80749916    -0.75700
C1288       C  0.52696026  0.16004152  0.81757259     0.85100
N1289       N  0.51699803  0.13379982  0.80269909    -0.75600
C1290       C  0.53316245  0.12158556  0.77833687     0.85200
N1291       N  0.55948104  0.13597465  0.76880012    -0.77300
C1292       C  0.66272113  0.32164201  0.53573117     0.82600
N1293       N  0.63842475  0.30622050  0.52319110    -0.75700
C1294       C  0.62976281  0.27806283  0.53455281     0.85100
N1295       N  0.64552653  0.26521311  0.55924631    -0.75600
C1296       C  0.67009842  0.28047829  0.57227089     0.85200
N1297       N  0.67882078  0.30865167  0.56025893    -0.77300
Zn1298     Zn  0.68205749  0.23764109  0.72231975     1.49700
Zn1299     Zn  0.72123931  0.18035382  0.75023616     1.49400
Zn1300     Zn  0.74361260  0.21242743  0.68647486     1.49100
Zn1301     Zn  0.75062124  0.24829874  0.75181870     1.49500
O1302       O  0.72432403  0.21985275  0.72739247    -1.81700
O1303       O  0.64895439  0.20906135  0.74055225    -0.72300
O1304       O  0.74552562  0.14626626  0.72871585    -0.72200
O1305       O  0.71480625  0.22835638  0.65120455    -0.71700
O1306       O  0.67657104  0.16648432  0.75439076    -0.72400
O1307       O  0.67218531  0.24417648  0.67632450    -0.72000
O1308       O  0.75561765  0.16584512  0.68183891    -0.72500
O1309       O  0.78838010  0.26124334  0.72799496    -0.71900
O1310       O  0.74001113  0.18371361  0.79328093    -0.72700
O1311       O  0.78395598  0.23627986  0.68271818    -0.72100
O1312       O  0.76542868  0.22868385  0.79224263    -0.72500
O1313       O  0.72669195  0.28749247  0.76324956    -0.72400
O1314       O  0.67921909  0.28021285  0.74353588    -0.72200
C1315       C  0.65054465  0.18099853  0.75112327     0.79600
C1316       C  0.75675146  0.14331078  0.70158778     0.80000
C1317       C  0.68729878  0.24030133  0.65117969     0.79000
C1318       C  0.79856988  0.25460757  0.70103282     0.79400
C1319       C  0.75810481  0.20346139  0.80601592     0.80500
C1320       C  0.69873833  0.29681772  0.75861666     0.79600
C1321       C  0.68676046  0.26721710  0.59993177    -0.14000
C1322       C  0.67206888  0.25017619  0.62153161    -0.29200
H1323       H  0.71075213  0.27386314  0.60406111     0.15000
H1324       H  0.64722712  0.24640857  0.61899790     0.15600
C1325       C  0.62183114  0.16441176  0.75975249    -0.14000
C1326       C  0.59718556  0.17942416  0.77234706    -0.29200
H1327       H  0.62189516  0.13890717  0.75791637     0.15000
H1328       H  0.59836668  0.20453955  0.77686448     0.15600
C1329       C  0.77511848  0.10332388  0.66413004    -0.14000
C1330       C  0.77164333  0.11281660  0.69363370    -0.29200
H1331       H  0.76622570  0.11809099  0.64523796     0.15000
H1332       H  0.77822499  0.09697969  0.71257514     0.15600
C1333       C  0.00267604  0.07307606  0.78422513    -0.14000
C1334       C  0.52311979  0.09227271  0.76269852    -0.29200
H1335       H  0.98781053  0.08214480  0.80258642     0.15000
H1336       H  0.53878029  0.08212555  0.74557957     0.15600
C1337       C  0.86210542  0.02126263  0.70626838    -0.14000
C1338       C  0.84668434  0.01123076  0.68085043    -0.29200
H1339       H  0.85361129  0.04140219  0.71945591     0.15000
H1340       H  0.84992830  0.49928557  0.65915810     0.15600
C1341       C  0.58530587  0.42782150  0.76692241    -0.14000
C1342       C  0.56338123  0.41135878  0.75191140    -0.29200
H1343       H  0.58171042  0.45284022  0.77105490     0.15000
H1344       H  0.56549829  0.38590927  0.75023186     0.15600
C1345       C  0.66153155  0.34118830  0.76447680    -0.14000
C1346       C  0.68910204  0.32755681  0.77159944    -0.29200
H1347       H  0.64589671  0.32985321  0.74804101     0.15000
H1348       H  0.70519687  0.33927413  0.78728875     0.15600
C1349       C  0.49835297  0.51176600  0.61341082    -0.14000
C1350       C  0.53627169  0.01982468  0.60383770    -0.29200
H1351       H  0.98357902  0.52842117  0.60208450     0.15000
H1352       H  0.55468293  0.00733876  0.61658726     0.15600
C1353       C  0.67010874  0.35256390  0.52238173    -0.14000
C1354       C  0.69467640  0.36937813  0.53122620    -0.29200
H1355       H  0.63932184  0.37131562  0.99837494     0.15000
H1356       H  0.71061497  0.36020897  0.54901479     0.15600
C1357       C  0.77087211  0.51148451  0.57952974    -0.14000
C1358       C  0.77637009  0.01375233  0.59249988    -0.29200
H1359       H  0.78585117  0.49445006  0.59162154     0.15000
H1360       H  0.78455310  0.98983680  0.58807844     0.15600
C1361       C  0.65775390  0.44122649  0.86457371    -0.14000
C1362       C  0.67291034  0.42604813  0.84164999    -0.29200
H1363       H  0.63252162  0.44341486  0.86364692     0.15000
H1364       H  0.69774515  0.42118941  0.84402544     0.15600
C1365       C  0.61647046  0.02966910  0.01813263    -0.14000
C1366       C  0.59740822  0.01758426  0.50924150    -0.29200
H1367       H  0.61581780  0.05518593  0.01971384     0.15000
H1368       H  0.60119225  0.48782818  0.51842566     0.15600
C1369       C  0.74694674  0.08194589  0.92923620    -0.14000
C1370       C  0.76597261  0.10197138  0.94397370    -0.29200
H1371       H  0.74094320  0.08562588  0.90480984     0.15000
H1372       H  0.77412722  0.09697971  0.96756755     0.14800
C1373       C  0.76202384  0.17263365  0.85445271    -0.14000
C1374       C  0.77164142  0.19679437  0.83713471    -0.29200
H1375       H  0.74279759  0.15848391  0.84620525     0.15000
H1376       H  0.79025646  0.21160196  0.84561779     0.15600
C1377       C  0.56242282  0.28578153  0.00803641    -0.14000
C1378       C  0.60292289  0.26212555  0.52032640    -0.29200
H1379       H  0.58407513  0.30366887  0.50009000     0.15000
H1380       H  0.58710832  0.24594293  0.02491098     0.15600
C1381       C  0.52406718  0.18835180  0.86778640    -0.14000
C1382       C  0.50996121  0.17178832  0.84513180    -0.29200
H1383       H  0.54864898  0.19350064  0.86592370     0.15000
H1384       H  0.98597559  0.16387037  0.85684704     0.15600
C1385       C  0.02469675  0.11885469  0.51078716    -0.14000
C1386       C  0.51666954  0.10171950  0.52550164    -0.29200
H1387       H  0.54728929  0.11264948  0.00453720     0.15000
H1388       H  0.99381483  0.10825463  0.54683947     0.15600
C1389       C  0.86663335  0.16840097  0.95332911    -0.14000
C1390       C  0.84918670  0.17856195  0.92893971    -0.29200
H1391       H  0.85792151  0.15059736  0.96895409     0.15000
H1392       H  0.85793689  0.19686033  0.91388590     0.15600
C1393       C  0.91883385  0.24981258  0.57149234    -0.14000
C1394       C  0.92244183  0.27800412  0.58526961    -0.29200
H1395       H  0.90492769  0.23201967  0.58258970     0.15000
H1396       H  0.93764521  0.29512337  0.57487225     0.15600
C1397       C  0.91690409  0.34733657  0.67680923    -0.14000
C1398       C  0.92903590  0.37244967  0.66273714    -0.29200
H1399       H  0.91341828  0.34767297  0.70184640     0.15000
H1400       H  0.92981132  0.37332270  0.63744848     0.15600
C1401       C  0.82777248  0.26925480  0.69113663    -0.14000
C1402       C  0.84197652  0.26202056  0.66422653    -0.29200
H1403       H  0.83761500  0.28693573  0.70644672     0.15000
H1404       H  0.83244065  0.24399270  0.64912369     0.15600
C1405       C  0.90886299  0.34139737  0.92784522    -0.14000
C1406       C  0.92504738  0.31745084  0.91530549    -0.29200
H1407       H  0.90317942  0.34114637  0.95245697     0.15000
H1408       H  0.92840676  0.31646591  0.89024855     0.15600
C1409       C  0.83044655  0.42448645  0.90787451    -0.14000
C1410       C  0.81634836  0.41972395  0.93518188    -0.29200
H1411       H  0.82056620  0.44126967  0.89123133     0.15000
H1412       H  0.82675809  0.40377577  0.95230280     0.15600
C1413       C  0.91702322  0.40851227  0.83577840    -0.14000
C1414       C  0.91357674  0.43732713  0.82339755    -0.29200
H1415       H  0.93317381  0.39153699  0.82564065     0.15000
H1416       H  0.89857552  0.45468555  0.83460729     0.15600
C1417       C  0.90535407  0.87177611  0.40558118     0.82600
N1418       N  0.91768039  0.88615740  0.38050422    -0.75700
C1419       C  0.90926241  0.91615613  0.37313635     0.85100
N1420       N  0.88791421  0.93150966  0.39056287    -0.75600
C1421       C  0.87493777  0.91744580  0.41542133     0.85200
N1422       N  0.88369757  0.88738933  0.42315330    -0.77300
C1423       C  0.91181823  0.77234707  0.12524276     0.82600
N1424       N  0.88631413  0.76237920  0.14057601    -0.75700
C1425       C  0.87710810  0.77668008  0.16742574     0.85100
N1426       N  0.89391560  0.80062284  0.17919619    -0.75600
C1427       C  0.91911207  0.81115398  0.16398001     0.85200
N1428       N  0.92800399  0.79718454  0.13684901    -0.77300
Zn1429     Zn  0.95336189  0.69014601  0.49869806     1.49700
Zn1430     Zn  0.95083282  0.72997556  0.43352424     1.49400
Zn1431     Zn  0.97338223  0.76229621  0.49632647     1.49100
Zn1432     Zn  0.52143875  0.71177936  0.46836326     1.49500
O1433       O  0.97322487  0.72279678  0.47331262    -1.81700
O1434       O  0.91530854  0.67419789  0.47561510    -0.72300
O1435       O  0.93493523  0.77561329  0.42936885    -0.72200
O1436       O  0.96464381  0.77164149  0.02727612    -0.71700
O1437       O  0.91314265  0.70275098  0.43209076    -0.72400
O1438       O  0.94770431  0.72447756  0.04084679    -0.72000
O1439       O  0.94686688  0.79542147  0.47580199    -0.72500
O1440       O  0.54832263  0.74336239  0.49058725    -0.71900
O1441       O  0.97782840  0.71775263  0.39640986    -0.72700
O1442       O  0.51469303  0.78151035  0.50347456    -0.72100
O1443       O  0.53289513  0.70904966  0.42283239    -0.72500
O1444       O  0.53169188  0.66888772  0.48647050    -0.72400
O1445       O  0.98626799  0.65920265  0.01350981    -0.72200
C1446       C  0.90205220  0.68188709  0.44991245     0.79600
C1447       C  0.93400041  0.79805880  0.44915492     0.80000
C1448       C  0.95168168  0.75369479  0.04670227     0.79000
C1449       C  0.54226801  0.77015901  0.50261364     0.79400
C1450       C  0.00666391  0.71029425  0.39478820     0.80500
C1451       C  0.01151620  0.64723178  0.49806482     0.79600
C1452       C  0.78642194  0.65513617  0.36900078     0.82600
N1453       N  0.77498096  0.63096186  0.38567178    -0.75700
C1454       C  0.78912943  0.62151973  0.41262286     0.85100
N1455       N  0.81520294  0.63614258  0.42268477    -0.75600
C1456       C  0.82723288  0.65997105  0.40575039     0.85200
N1457       N  0.81267919  0.66949594  0.37900322    -0.77300
Zn1458     Zn  0.74641878  0.97570770  0.43088553     1.49700
Zn1459     Zn  0.74717938  0.95509655  0.50176260     1.49400
Zn1460     Zn  0.72102640  0.51662680  0.49098890     1.49100
Zn1461     Zn  0.68229123  0.95751434  0.46282176     1.49500
O1462       O  0.72277753  0.97723978  0.46909255    -1.81700
O1463       O  0.78781774  0.95478301  0.43783645    -0.72300
O1464       O  0.76623028  0.96942839  0.03692972    -0.72200
O1465       O  0.74085822  0.54753672  0.46181294    -0.71700
O1466       O  0.78812879  0.93615024  0.48610171    -0.72400
O1467       O  0.75073731  0.51798378  0.42028991    -0.72000
O1468       O  0.73179470  0.52412436  0.02192373    -0.72500
O1469       O  0.64674418  0.98815200  0.47345113    -0.71900
O1470       O  0.72987660  0.90770904  0.01272337    -0.72700
O1471       O  0.67595676  0.52910996  0.49595753    -0.72100
O1472       O  0.67858090  0.92041017  0.49194181    -0.72500
O1473       O  0.67853869  0.94007981  0.41862724    -0.72400
O1474       O  0.72510890  0.94962475  0.39894951    -0.72200
C1475       C  0.80102655  0.93921867  0.45976617     0.79600
C1476       C  0.75975485  0.99536123  0.05042262     0.80000
C1477       C  0.75020334  0.54451323  0.43392194     0.79000
C1478       C  0.64594511  0.01738224  0.48039607     0.79400
C1479       C  0.69628786  0.90839882  0.51300945     0.80500
C1480       C  0.69842646  0.93746006  0.39683860     0.79600
C1481       C  0.53722208  0.53705669  0.08172729     0.82600
N1482       N  0.52134897  0.56257246  0.07030847    -0.75700
C1483       C  0.52949106  0.57559370  0.04276727     0.85100
N1484       N  0.55365385  0.56268510  0.02645777    -0.75600
C1485       C  0.56923866  0.53678657  0.03762673     0.85200
N1486       N  0.56099000  0.52426748  0.06529858    -0.77300
C1487       C  0.62161271  0.88339941  0.28983826     0.82600
N1488       N  0.62857393  0.89927333  0.31632236    -0.75700
C1489       C  0.65614467  0.89406357  0.33123751     0.85100
N1490       N  0.67706420  0.87277672  0.31947747    -0.75600
C1491       C  0.67009575  0.85675902  0.29290595     0.85200
N1492       N  0.64217899  0.86207734  0.27844499    -0.77300
Zn1493     Zn  0.51532930  0.97976290  0.22291949     1.49700
Zn1494     Zn  0.95156916  0.96439557  0.18343845     1.49400
Zn1495     Zn  0.98318527  0.92202815  0.23512744     1.49100
Zn1496     Zn  0.95076698  0.98902999  0.25396651     1.49500
O1497       O  0.97503059  0.96563383  0.22266370    -1.81700
O1498       O  0.52734041  0.98469523  0.17835662    -0.72300
O1499       O  0.94452184  0.92014525  0.16743416    -0.72200
O1500       O  0.53159203  0.90799720  0.25026686    -0.71700
O1501       O  0.97399738  0.98798685  0.15082779    -0.72400
O1502       O  0.54905889  0.95667261  0.24554950    -0.72000
O1503       O  0.96500278  0.89045513  0.20519820    -0.72500
O1504       O  0.94281871  0.96029202  0.29039816    -0.71900
O1505       O  0.90994820  0.98579936  0.18772052    -0.72700
O1506       O  0.96473199  0.91445275  0.27680404    -0.72100
O1507       O  0.90546303  0.50748349  0.24166972    -0.72500
O1508       O  0.96928623  0.53536641  0.27442839    -0.72400
O1509       O  0.50577019  0.53894541  0.24332904    -0.72200
C1510       C  0.00115578  0.99910323  0.14931195     0.79600
C1511       C  0.95060317  0.89322542  0.17920750     0.80000
C1512       C  0.55281213  0.92825536  0.25398726     0.79000
C1513       C  0.94965116  0.93146661  0.29596318     0.79400
C1514       C  0.89640529  0.00125375  0.20921724     0.80500
C1515       C  0.99272757  0.55030467  0.26461265     0.79600
C1516       C  0.79237404  0.51903180  0.11591310     0.82600
N1517       N  0.81340951  0.50432206  0.13496936    -0.75700
C1518       C  0.82294629  0.51821952  0.16195339     0.85100
N1519       N  0.81109597  0.54702827  0.16991515    -0.75600
C1520       C  0.79005548  0.56177216  0.15062543     0.85200
N1521       N  0.78119535  0.54787390  0.12376917    -0.77300
C1522       C  0.57319712  0.66462829  0.28460840     0.82600
N1523       N  0.55815177  0.67865161  0.30871023    -0.75700
C1524       C  0.53176052  0.66596833  0.32005946     0.85100
N1525       N  0.52027075  0.63947072  0.30695067    -0.75600
C1526       C  0.53528738  0.62529261  0.28294631     0.85200
N1527       N  0.56178071  0.63786352  0.27198152    -0.77300
C1528       C  0.66216257  0.81999063  0.03214918     0.82600
N1529       N  0.63735191  0.80559920  0.01915160    -0.75700
C1530       C  0.62913473  0.77652022  0.02848864     0.85100
N1531       N  0.64554795  0.76190026  0.05163046    -0.75600
C1532       C  0.67029693  0.77613609  0.06529146     0.85200
N1533       N  0.67882984  0.80518169  0.05529169    -0.77300
Zn1534     Zn  0.68285532  0.72726679  0.21037977     1.49700
Zn1535     Zn  0.72192381  0.67223495  0.24096760     1.49400
Zn1536     Zn  0.74124162  0.69959204  0.17528219     1.49100
Zn1537     Zn  0.75212380  0.74077980  0.23781615     1.49500
O1538       O  0.72481798  0.71036213  0.21621063    -1.81700
O1539       O  0.65043280  0.70151127  0.23197546    -0.72300
O1540       O  0.74344367  0.63620547  0.22041133    -0.72200
O1541       O  0.71370185  0.71640431  0.13994984    -0.71700
O1542       O  0.67776614  0.66025155  0.24966120    -0.72400
O1543       O  0.67138931  0.73277810  0.16496648    -0.72000
O1544       O  0.75135301  0.65295200  0.17211389    -0.72500
O1545       O  0.78994830  0.75042174  0.21086583    -0.71900
O1546       O  0.74398444  0.67701938  0.28158222    -0.72700
O1547       O  0.78188145  0.71990377  0.16953777    -0.72100
O1548       O  0.76866709  0.72235258  0.27865305    -0.72500
O1549       O  0.72739525  0.78096730  0.24873026    -0.72400
O1550       O  0.68077344  0.76984170  0.22874142    -0.72200
C1551       C  0.65204360  0.67509608  0.24592676     0.79600
C1552       C  0.75328829  0.63161620  0.19302177     0.80000
C1553       C  0.68656329  0.72899299  0.13993587     0.79000
C1554       C  0.79842646  0.73923564  0.18457542     0.79400
C1555       C  0.76251465  0.69704449  0.29302882     0.80500
C1556       C  0.69888901  0.78821435  0.24317734     0.79600
C1557       C  0.68668862  0.76089926  0.09200526    -0.14000
C1558       C  0.67223447  0.74035434  0.11057183    -0.29200
H1559       H  0.70992630  0.76863316  0.09816685     0.15000
H1560       H  0.64788878  0.73514364  0.10635439     0.15600
C1561       C  0.62360391  0.66111638  0.25811690    -0.14000
C1562       C  0.60149233  0.67870797  0.27199990    -0.29200
H1563       H  0.62172642  0.63566570  0.25747667     0.15000
H1564       H  0.60482780  0.70378231  0.27523365     0.15600
C1565       C  0.77691553  0.59298810  0.15757189    -0.14000
C1566       C  0.76806068  0.60092629  0.18625473    -0.29200
H1567       H  0.77176218  0.60865703  0.13809967     0.15000
H1568       H  0.77147464  0.58430014  0.20529525     0.15600
C1569       C  0.00007346  0.58142498  0.27831078    -0.14000
C1570       C  0.52390448  0.59598159  0.26894914    -0.29200
H1571       H  0.98512401  0.59067084  0.29650645     0.15000
H1572       H  0.53772837  0.58585044  0.25029466     0.15600
C1573       C  0.86284341  0.51515498  0.20514755    -0.14000
C1574       C  0.84868023  0.50300727  0.17971586    -0.29200
H1575       H  0.85314204  0.53563357  0.21692813     0.15000
H1576       H  0.85938452  0.99294564  0.15978601     0.15600
C1577       C  0.59241188  0.89000067  0.27291285    -0.14000
C1578       C  0.58215307  0.91970757  0.26978003    -0.29200
H1579       H  0.58029531  0.87083429  0.26160803     0.15000
H1580       H  0.59602378  0.93876274  0.27908248     0.15600
C1581       C  0.69168178  0.83236172  0.28051341    -0.14000
C1582       C  0.68495254  0.81818418  0.25333042    -0.29200
H1583       H  0.71125098  0.82415945  0.29478080     0.15000
H1584       H  0.66478984  0.82617919  0.23977487     0.15600
C1585       C  0.52483533  0.99517942  0.12459882    -0.14000
C1586       C  0.52950677  0.52348186  0.11210833    -0.29200
H1587       H  0.99145068  0.02304831  0.10483586     0.15000
H1588       H  0.54770817  0.51085781  0.12503721     0.15600
C1589       C  0.66915731  0.85199327  0.02118203    -0.14000
C1590       C  0.69615328  0.86653906  0.02649776    -0.29200
H1591       H  0.64531842  0.87350645  0.50443395     0.15000
H1592       H  0.71466608  0.85468719  0.03967639     0.15600
C1593       C  0.77593680  0.00289801  0.07996889    -0.14000
C1594       C  0.78171299  0.50405903  0.08674513    -0.29200
H1595       H  0.79343531  0.98635084  0.08889185     0.15000
H1596       H  0.79032902  0.48063628  0.08096578     0.15600
C1597       C  0.69148789  0.91924135  0.36850187    -0.14000
C1598       C  0.66256549  0.91152369  0.36014300    -0.29200
H1599       H  0.71081627  0.91270589  0.35356516     0.15000
H1600       H  0.64292995  0.91990545  0.37376034     0.15600
C1601       C  0.62178458  0.52971391  0.50422807    -0.14000
C1602       C  0.59467711  0.52126627  0.02025466    -0.29200
H1603       H  0.62091240  0.55526143  0.50499258     0.15000
H1604       H  0.59392422  0.98760838  0.02840275     0.15600
C1605       C  0.76083599  0.57209254  0.41666377    -0.14000
C1606       C  0.77667540  0.59519070  0.43064691    -0.29200
H1607       H  0.75780982  0.57213811  0.39147647     0.15000
H1608       H  0.78227418  0.59365992  0.45537652     0.14800
C1609       C  0.77060803  0.66441657  0.33972382    -0.14000
C1610       C  0.77778141  0.69021373  0.32334255    -0.29200
H1611       H  0.75233601  0.64912459  0.33132187     0.15000
H1612       H  0.79549322  0.70605449  0.33190686     0.15600
C1613       C  0.56772001  0.78882671  0.51574314    -0.14000
C1614       C  0.60203561  0.76120548  0.01423332    -0.29200
H1615       H  0.58112341  0.80349345  0.99799256     0.15000
H1616       H  0.59143768  0.75013502  0.53626719     0.15600
C1617       C  0.53128055  0.69579326  0.36931833    -0.14000
C1618       C  0.51593075  0.67975200  0.34718150    -0.29200
H1619       H  0.55611838  0.69952233  0.36721863     0.15000
H1620       H  0.98365384  0.67653499  0.34735561     0.15600
C1621       C  0.02700367  0.61947215  0.01279764    -0.14000
C1622       C  0.51239346  0.60410804  0.03153847    -0.29200
H1623       H  0.55520492  0.61416644  0.50188473     0.15000
H1624       H  0.99563650  0.60869144  0.04833686     0.15600
C1625       C  0.87291446  0.66628211  0.44083387    -0.14000
C1626       C  0.85636323  0.67517193  0.41540703    -0.29200
H1627       H  0.86477071  0.64743999  0.45555716     0.15000
H1628       H  0.86453203  0.69415279  0.40086215     0.15600
C1629       C  0.94209287  0.76824781  0.07660653    -0.14000
C1630       C  0.92151197  0.75586604  0.09622576    -0.29200
H1631       H  0.95157531  0.79117683  0.08193114     0.15000
H1632       H  0.91068303  0.73371235  0.09038116     0.15600
C1633       C  0.93634488  0.83743242  0.17775745    -0.14000
C1634       C  0.93976465  0.86480220  0.16267190    -0.29200
H1635       H  0.94179569  0.83601157  0.20251380     0.15000
H1636       H  0.93148972  0.86714584  0.13873370     0.15600
C1637       C  0.82799967  0.74805104  0.17020884    -0.14000
C1638       C  0.84838827  0.76755459  0.18344749    -0.29200
H1639       H  0.83300681  0.73799401  0.14748123     0.15000
H1640       H  0.84335398  0.77807251  0.20595474     0.15600
C1641       C  0.91571961  0.83922199  0.41257832    -0.14000
C1642       C  0.91811844  0.82828936  0.44174602    -0.29200
H1643       H  0.92514937  0.82522491  0.39358520     0.15000
H1644       H  0.91129894  0.84340699  0.46101998     0.15600
C1645       C  0.84881384  0.93443232  0.43017799    -0.14000
C1646       C  0.83139700  0.92359980  0.45346005    -0.29200
H1647       H  0.84187635  0.95651594  0.41906160     0.15000
H1648       H  0.83817399  0.90233899  0.46603999     0.15600
C1649       C  0.92152277  0.93184316  0.34548201    -0.14000
C1650       C  0.93971026  0.91669119  0.32503948    -0.29200
H1651       H  0.91422391  0.95608265  0.34116434     0.15000
H1652       H  0.94660049  0.89228780  0.32907077     0.15600
C1653       C  0.91087873  0.87424332  0.91733321     0.82600
N1654       N  0.91906063  0.88823433  0.89021891    -0.75700
C1655       C  0.90204666  0.91321577  0.87895431     0.85100
N1656       N  0.87646490  0.92338373  0.89457803    -0.75600
C1657       C  0.86808876  0.90912615  0.92150134     0.85200
N1658       N  0.88568139  0.88499347  0.93298644    -0.77300
C1659       C  0.91563323  0.78183135  0.62509744     0.82600
N1660       N  0.88859436  0.76894164  0.63461237    -0.75700
C1661       C  0.87368568  0.78071203  0.66000324     0.85100
N1662       N  0.88616541  0.80513458  0.67597737    -0.75600
C1663       C  0.91278406  0.81838733  0.66630143     0.85200
N1664       N  0.92725790  0.80692680  0.64066024    -0.77300
Zn1665     Zn  0.95869949  0.69780177  0.00170115     1.49700
Zn1666     Zn  0.95962724  0.72325316  0.93001428     1.49400
Zn1667     Zn  0.98432201  0.76676146  0.98553958     1.49100
Zn1668     Zn  0.51936998  0.70860454  0.95777488     1.49500
O1669       O  0.98073058  0.72365495  0.97073021    -1.81700
O1670       O  0.91825033  0.68136773  0.98198800    -0.72300
O1671       O  0.94784015  0.76754361  0.91618360    -0.72200
O1672       O  0.95503863  0.75726049  0.53824889    -0.71700
O1673       O  0.92017633  0.69882605  0.93311863    -0.72400
O1674       O  0.93799758  0.70831966  0.54024002    -0.72000
O1675       O  0.96352612  0.79705983  0.95596915    -0.72500
O1676       O  0.55225560  0.73522428  0.97752261    -0.71900
O1677       O  0.98658222  0.70408239  0.89603065    -0.72700
O1678       O  0.52623923  0.77967342  0.98726903    -0.72100
O1679       O  0.52912025  0.70240124  0.91249216    -0.72500
O1680       O  0.52354293  0.66652307  0.97741453    -0.72400
O1681       O  0.98358320  0.65288400  0.50670392    -0.72200
C1682       C  0.90651243  0.68380389  0.95455875     0.79600
C1683       C  0.95040338  0.79421426  0.92938322     0.80000
C1684       C  0.94085065  0.73557717  0.55229501     0.79000
C1685       C  0.55136422  0.76347869  0.98721035     0.79400
C1686       C  0.01593404  0.69942193  0.89499157     0.80500
C1687       C  0.01257006  0.64965685  0.00304264     0.79600
C1688       C  0.79309049  0.65617937  0.87063875     0.82600
N1689       N  0.78135792  0.63128672  0.88564764    -0.75700
C1690       C  0.79425975  0.62071176  0.91271459     0.85100
N1691       N  0.81969477  0.63522521  0.92491522    -0.75600
C1692       C  0.83207302  0.66011323  0.90958845     0.85200
N1693       N  0.81856490  0.67050744  0.88254811    -0.77300
Zn1694     Zn  0.72831163  0.98323653  0.93480588     1.49700
Zn1695     Zn  0.74870861  0.94849584  0.99835550     1.49400
Zn1696     Zn  0.71131738  0.52094905  0.98029066     1.49100
Zn1697     Zn  0.67633169  0.95599111  0.97840583     1.49500
O1698       O  0.71707251  0.97567848  0.97787215    -1.81700
O1699       O  0.76975819  0.96407619  0.92571640    -0.72300
O1700       O  0.75616287  0.98491329  0.53701649    -0.72200
O1701       O  0.73501267  0.55028929  0.95319094    -0.71700
O1702       O  0.78444673  0.93898422  0.96907623    -0.72400
O1703       O  0.74561969  0.52107401  0.91149408    -0.72000
O1704       O  0.74194642  0.52102055  0.53284886    -0.72500
O1705       O  0.64454172  0.98521848  0.99832026    -0.71900
O1706       O  0.72285604  0.91956963  0.51935393    -0.72700
O1707       O  0.66670754  0.53611526  0.98593236    -0.72100
O1708       O  0.67944065  0.91431425  0.00152542    -0.72500
O1709       O  0.66053619  0.94678053  0.93447428    -0.72400
O1710       O  0.69822935  0.96448421  0.90457892    -0.72200
C1711       C  0.78932970  0.94733526  0.94102287     0.79600
C1712       C  0.74867279  0.01358606  0.54219372     0.80000
C1713       C  0.74692029  0.54691195  0.92639816     0.79000
C1714       C  0.64536950  0.01371244  0.00765397     0.79400
C1715       C  0.70205086  0.89791122  0.01294375     0.80500
C1716       C  0.67230609  0.95101478  0.90774061     0.79600
C1717       C  0.53722497  0.52523729  0.57438655     0.82600
N1718       N  0.52357906  0.55272778  0.56487031    -0.75700
C1719       C  0.53464744  0.56837613  0.53984281     0.85100
N1720       N  0.55942270  0.55609851  0.52403190    -0.75600
C1721       C  0.57255509  0.52810405  0.53317096     0.85200
N1722       N  0.56150720  0.51304724  0.55840138    -0.77300
C1723       C  0.61824726  0.92076425  0.78704800     0.82600
N1724       N  0.63186940  0.93262323  0.81316375    -0.75700
C1725       C  0.65604663  0.91672975  0.82710710     0.85100
N1726       N  0.66649668  0.88907613  0.81489118    -0.75600
C1727       C  0.65232912  0.87685210  0.78928495     0.85200
N1728       N  0.62838620  0.89276732  0.77554454    -0.77300
Zn1729     Zn  0.50881568  0.99330638  0.71255522     1.49700
Zn1730     Zn  0.94825396  0.96966451  0.68949260     1.49400
Zn1731     Zn  0.97801513  0.92656886  0.74208731     1.49100
Zn1732     Zn  0.94501616  0.99263466  0.76076729     1.49500
O1733       O  0.97040271  0.97018605  0.72925364    -1.81700
O1734       O  0.51667324  0.00524063  0.66734400    -0.72300
O1735       O  0.94197663  0.92562483  0.67312862    -0.72200
O1736       O  0.52294896  0.92009638  0.73592663    -0.71700
O1737       O  0.97035865  0.99410537  0.65696189    -0.72400
O1738       O  0.54446433  0.96695937  0.73016565    -0.72000
O1739       O  0.95887388  0.89559818  0.71240246    -0.72500
O1740       O  0.93529266  0.96334540  0.79724681    -0.71900
O1741       O  0.90673717  0.99064888  0.69373759    -0.72700
O1742       O  0.95986602  0.91883741  0.78404082    -0.72100
O1743       O  0.90262416  0.51798273  0.73139643    -0.72500
O1744       O  0.96707249  0.53672577  0.76564705    -0.72400
O1745       O  0.51013987  0.52612085  0.73404576    -0.72200
C1746       C  0.99739816  0.00546378  0.65531259     0.79600
C1747       C  0.94627653  0.89871303  0.68556858     0.80000
C1748       C  0.54630863  0.93789270  0.73726420     0.79000
C1749       C  0.94336205  0.93479858  0.80291385     0.79400
C1750       C  0.89241739  0.00617911  0.71468177     0.80500
C1751       C  0.99337079  0.54714157  0.75777675     0.79600
C1752       C  0.77905414  0.54797417  0.62232848     0.82600
N1753       N  0.80225393  0.52979467  0.63482019    -0.75700
C1754       C  0.81511682  0.53711414  0.66270047     0.85100
N1755       N  0.80465110  0.56279436  0.67839429    -0.75600
C1756       C  0.78165100  0.58119984  0.66590049     0.85200
N1757       N  0.76897027  0.57389035  0.63774643    -0.77300
C1758       C  0.57213547  0.66017283  0.77737260     0.82600
N1759       N  0.55476227  0.67222184  0.80078912    -0.75700
C1760       C  0.52988910  0.65663056  0.81165366     0.85100
N1761       N  0.52185137  0.62892309  0.79828393    -0.75600
C1762       C  0.53897785  0.61640228  0.77460861     0.85200
N1763       N  0.56439593  0.63203220  0.76437575    -0.77300
C1764       C  0.65105589  0.83662269  0.54017666     0.82600
N1765       N  0.62591114  0.82066631  0.52986962    -0.75700
C1766       C  0.61740787  0.79374659  0.54421382     0.85100
N1767       N  0.63395993  0.78301133  0.56931146    -0.75600
C1768       C  0.65894308  0.79908923  0.58007339     0.85200
N1769       N  0.66769808  0.82560576  0.56517834    -0.77300
Zn1770     Zn  0.68029891  0.74654464  0.72809546     1.49700
Zn1771     Zn  0.72382680  0.68835914  0.74515208     1.49400
Zn1772     Zn  0.73894004  0.73139061  0.68582598     1.49100
Zn1773     Zn  0.75062138  0.75688061  0.75423336     1.49500
O1774       O  0.72329176  0.73090467  0.72844267    -1.81700
O1775       O  0.64988631  0.71386415  0.74361433    -0.72300
O1776       O  0.74237282  0.65925376  0.71408688    -0.72200
O1777       O  0.70926798  0.75367253  0.65610053    -0.71700
O1778       O  0.68059263  0.67229187  0.75303851    -0.72400
O1779       O  0.66643768  0.75865058  0.68436262    -0.72000
O1780       O  0.74495118  0.68743660  0.67048309    -0.72500
O1781       O  0.78759344  0.77214210  0.73039475    -0.71900
O1782       O  0.74937626  0.68512171  0.78477699    -0.72700
O1783       O  0.78110018  0.75121693  0.68340855    -0.72100
O1784       O  0.76856556  0.73291022  0.79075804    -0.72500
O1785       O  0.72664513  0.79371234  0.77110724    -0.72400
O1786       O  0.67804652  0.78580720  0.75439818    -0.72200
C1787       C  0.65363067  0.68512664  0.75167349     0.79600
C1788       C  0.74775215  0.66155296  0.68510786     0.80000
C1789       C  0.68065838  0.76145355  0.65868692     0.79000
C1790       C  0.79716013  0.76679668  0.70293126     0.79400
C1791       C  0.76600294  0.70464050  0.79978144     0.80500
C1792       C  0.69807616  0.80192899  0.76935455     0.79600
C1793       C  0.67690676  0.78770555  0.60743722    -0.14000
C1794       C  0.66307036  0.77328702  0.63125824    -0.29200
H1795       H  0.70162141  0.79258735  0.60872402     0.15000
H1796       H  0.63792958  0.77089837  0.63105593     0.15600
C1797       C  0.62640032  0.66576695  0.75943890    -0.14000
C1798       C  0.59860406  0.67871748  0.76632589    -0.29200
H1799       H  0.62972251  0.64041795  0.76116448     0.15000
H1800       H  0.59605956  0.70418587  0.76708299     0.15600
C1801       C  0.77102447  0.60905941  0.68281468    -0.14000
C1802       C  0.75762805  0.63354113  0.66795895    -0.29200
H1803       H  0.77563097  0.61007480  0.70775976     0.15000
H1804       H  0.75513700  0.63356051  0.64272042     0.15600
C1805       C  0.00393223  0.57660877  0.77236813    -0.14000
C1806       C  0.53002539  0.58604146  0.75989125    -0.29200
H1807       H  0.98961031  0.58651484  0.79075720     0.15000
H1808       H  0.54489429  0.57621046  0.74191972     0.15600
C1809       C  0.85846741  0.52655500  0.69924987    -0.14000
C1810       C  0.84203238  0.51862195  0.67382253    -0.29200
H1811       H  0.85062209  0.54565598  0.71421765     0.15000
H1812       H  0.85526114  0.99024284  0.66897488     0.15600
C1813       C  0.59216815  0.93772280  0.77155056    -0.14000
C1814       C  0.57566253  0.92406758  0.74863312    -0.29200
H1815       H  0.58511995  0.96071314  0.78033325     0.15000
H1816       H  0.58115296  0.90013324  0.74141593     0.15600
C1817       C  0.66195539  0.84638199  0.77613689    -0.14000
C1818       C  0.68834160  0.83134454  0.78466321    -0.29200
H1819       H  0.64728550  0.83660214  0.75787061     0.15000
H1820       H  0.70395338  0.84172582  0.80174212     0.15600
C1821       C  0.50714001  0.02000807  0.61439864    -0.14000
C1822       C  0.52750665  0.50946088  0.60302804    -0.29200
H1823       H  0.98718526  0.03012010  0.61121275     0.15000
H1824       H  0.54461914  0.49495356  0.61550628     0.15600
C1825       C  0.66017882  0.86531407  0.52355558    -0.14000
C1826       C  0.68635992  0.88065195  0.53062697    -0.29200
H1827       H  0.65145077  0.86353760  0.00666862     0.15000
H1828       H  0.70153526  0.87214236  0.54936313     0.15600
C1829       C  0.75810361  0.02865905  0.57152609    -0.14000
C1830       C  0.76498371  0.53967979  0.59223134    -0.29200
H1831       H  0.75037719  0.05278645  0.57558673     0.15000
H1832       H  0.74922704  0.55646090  0.58081384     0.15600
C1833       C  0.65576225  0.93979155  0.87970787    -0.14000
C1834       C  0.67165434  0.92947971  0.85485622    -0.29200
H1835       H  0.63056045  0.93822074  0.88004984     0.15000
H1836       H  0.69692243  0.92802910  0.85586801     0.15600
C1837       C  0.61392820  0.53664071  0.00140003    -0.14000
C1838       C  0.59872969  0.51325593  0.51660705    -0.29200
H1839       H  0.61112223  0.56189137  0.99820234     0.15000
H1840       H  0.60285556  0.99320322  0.51518384     0.15600
C1841       C  0.76251777  0.57347509  0.91191509    -0.14000
C1842       C  0.78020083  0.59362378  0.92831416    -0.29200
H1843       H  0.76056009  0.57560565  0.88672960     0.15000
H1844       H  0.78443545  0.58999775  0.95307726     0.14800
C1845       C  0.77783497  0.66658840  0.84146137    -0.14000
C1846       C  0.78286322  0.69458736  0.82831935    -0.29200
H1847       H  0.76076545  0.65101462  0.83117732     0.15000
H1848       H  0.79898610  0.71080265  0.83913781     0.15600
C1849       C  0.57976553  0.77803516  0.99920106    -0.14000
C1850       C  0.59143858  0.77527983  0.53170404    -0.29200
H1851       H  0.56618904  0.81427484  0.51355825     0.15000
H1852       H  0.59940441  0.73608038  0.01765154     0.15600
C1853       C  0.52658030  0.68789169  0.85965768    -0.14000
C1854       C  0.51257883  0.66911528  0.83872506    -0.29200
H1855       H  0.55096079  0.69347604  0.85683247     0.15000
H1856       H  0.99215176  0.66633722  0.84708482     0.15600
C1857       C  0.02774994  0.61722600  0.50643362    -0.14000
C1858       C  0.51918781  0.59835024  0.53038573    -0.29200
H1859       H  0.54239459  0.61221256  0.99435355     0.15000
H1860       H  0.99477877  0.60285496  0.53889559     0.15600
C1861       C  0.87640717  0.66868251  0.94712644    -0.14000
C1862       C  0.86101058  0.67531174  0.92029508    -0.29200
H1863       H  0.86699522  0.65203445  0.96356131     0.15000
H1864       H  0.87036802  0.69276233  0.90463974     0.15600
C1865       C  0.92633409  0.74304773  0.58262660    -0.14000
C1866       C  0.93169396  0.77072393  0.59686133    -0.29200
H1867       H  0.91031353  0.72647624  0.59262037     0.15000
H1868       H  0.94869809  0.78650801  0.58722824     0.15600
C1869       C  0.92524749  0.84547779  0.68336844    -0.14000
C1870       C  0.93620383  0.87060410  0.66841783    -0.29200
H1871       H  0.92286745  0.84599888  0.70854757     0.15000
H1872       H  0.93556290  0.87141793  0.64310314     0.15600
C1873       C  0.82774373  0.77887724  0.69402004    -0.14000
C1874       C  0.84322814  0.76814920  0.66895418    -0.29200
H1875       H  0.83817285  0.79639002  0.70912194     0.15000
H1876       H  0.83319601  0.74991843  0.65443765     0.15600
C1877       C  0.92901790  0.84786471  0.93064837    -0.14000
C1878       C  0.93703737  0.82241391  0.91388778    -0.29200
H1879       H  0.93220888  0.84760229  0.95581332     0.15000
H1880       H  0.93111938  0.82133581  0.88921668     0.15600
C1881       C  0.83981403  0.91892366  0.93824354    -0.14000
C1882       C  0.81822853  0.93802028  0.92519569    -0.29200
H1883       H  0.83614834  0.90923069  0.96131240     0.15000
H1884       H  0.82155595  0.94692990  0.90175544     0.15600
C1885       C  0.91123645  0.92995496  0.85032904    -0.14000
C1886       C  0.93400546  0.91899597  0.83190238    -0.29200
H1887       H  0.89866770  0.95148298  0.84406353     0.15000
H1888       H  0.94569103  0.89682385  0.83761147     0.15600
loop_ 
_geom_bond_atom_site_label_1 
_geom_bond_atom_site_label_2 
_geom_bond_distance 
_geom_bond_site_symmetry_2 
_ccdc_geom_bond_type 
C1            N2   1.362       .  A
C1            N6   1.359       .  A
C1          C225   1.471       .  S
N2            C3   1.362       .  A
C3            N4   1.348       .  A
C3          C233   1.465       .  S
N4            C5   1.349       .  A
C5            N6   1.357       .  A
C5          C229   1.462       .  S
C7            N8   1.367       .  A
C7           N12   1.359       .  A
C7          C214   1.483       .  S
N8            C9   1.369       .  A
C9           N10   1.354       .  A
C9          C222   1.482       .  S
N10          C11   1.352       .  A
C11          N12   1.356       .  A
C11         C217   1.469       .  S
Zn13         O17   1.982       .  S
Zn13         O18   2.058       .  S
Zn13        O258   2.087       .  S
Zn13        O265   2.083       .  S
Zn14         O17   1.960       .  S
Zn14         O19   2.041       .  S
Zn14         O21   2.008       .  S
Zn14         O25   2.035       .  S
Zn15         O17   1.944       .  S
Zn15         O23   1.997       .  S
Zn15        O256   1.988       .  S
Zn15        O970   2.002       .  S
Zn16        O961   1.942   1_455  S
Zn16         O24   1.999       .  S
Zn16         O27   2.017       .  S
Zn16         O28   1.993       .  S
O17        Zn960   1.945       .  S
O18          C30   1.279       .  A
O19          C31   1.275       .  A
O20        Zn251   2.025   1_554  S
O20          C32   1.275       .  A
O21          C30   1.275       .  A
O22        Zn249   2.053       .  S
O22          C32   1.277       .  A
O23          C31   1.272       .  A
O24          C33   1.271       .  A
O25          C34   1.275       .  A
O26        Zn959   2.002   1_455  S
O26          C33   1.270       .  A
O27         C978   1.272       .  A
O28         C979   1.270       .  A
O29        Zn249   2.037       .  S
O29         C271   1.279       .  A
C30         C209   1.485       .  S
C31         C226   1.476       .  S
C32         C213   1.490       .  S
C33         C197   1.462       .  S
C34        C1145   1.474       .  S
C34         O971   1.273       .  A
C35         C441   1.480       .  S
C35         O972   1.268       .  A
C35         O265   1.282       .  A
C36          N37   1.355       .  A
C36          N41   1.359       .  A
C36         C193   1.474       .  S
N37          C38   1.356       .  A
C38          N39   1.362       .  A
C38         C190   1.479       .  S
N39          C40   1.364       .  A
C40          N41   1.362       .  A
C40         C210   1.481       .  S
Zn42         O46   1.929       .  S
Zn42         O47   1.993       .  S
Zn42         O58   1.989       .  S
Zn42        O523   2.010       .  S
Zn43         O46   1.957       .  S
Zn43         O50   1.998       .  S
Zn43        O284   1.966       .  S
Zn43        O290   1.976       .  S
Zn44        O518   1.957   1_545  S
Zn44         O49   2.021       .  S
Zn44         O55   2.026       .  S
Zn44        O288   1.997       .  S
Zn45         O46   1.963       .  S
Zn45         O53   2.052       .  S
Zn45         O56   2.055       .  S
Zn45         O57   2.059       .  S
O46        Zn516   1.957       .  S
O47          C59   1.272       .  A
O48        Zn279   2.013   1_554  S
O48          C60   1.274       .  A
O49          C61   1.273       .  A
O50          C59   1.267       .  A
O51        Zn514   2.032   1_545  S
O51          C61   1.274       .  A
O52        Zn280   1.999   1_554  S
O52         C532   1.274   1_545  A
O53          C62   1.280       .  A
O54        Zn279   2.023   1_554  S
O54         C299   1.272       .  A
O55         C534   1.274       .  A
O56          C63   1.279       .  A
O57          C64   1.280       .  A
O58          C64   1.270       .  A
C59         C230   1.467       .  S
C60         C177   1.464       .  S
C60         O524   1.269       .  A
C61         C189   1.475       .  S
C62         C657   1.481       .  S
C62         O527   1.274       .  A
C63         C410   1.474       .  S
C63         O290   1.267       .  A
C64         C181   1.473       .  S
C65          N66   1.358       .  A
C65          N70   1.353       .  A
C65         C170   1.465       .  S
N66          C67   1.355       .  A
C67          N68   1.362       .  A
C67         C206   1.477       .  S
N68          C69   1.357       .  A
C69          N70   1.356       .  A
C69         C186   1.471       .  S
C71          N72   1.358       .  A
C71          N76   1.354       .  A
C71         C161   1.469       .  S
N72          C73   1.358       .  A
C73          N74   1.364       .  A
C73         C182   1.477       .  S
N74          C75   1.359       .  A
C75          N76   1.360       .  A
C75         C165   1.485       .  S
Zn77       O1025   1.949   1_455  S
Zn77         O82   2.013       .  S
Zn77         O86   2.026       .  S
Zn77        O565   2.011       .  S
Zn78         O81   1.931       .  S
Zn78         O83   2.015       .  S
Zn78         O85   2.000       .  S
Zn78         O89   1.984       .  S
Zn79         O81   1.948       .  S
Zn79         O87   2.011       .  S
Zn79         O90   1.982       .  S
Zn79       O1028   1.996       .  S
Zn80         O81   1.970       .  S
Zn80         O88   2.029       .  S
Zn80        O563   2.046       .  S
Zn80        O564   2.036       .  S
O81       Zn1021   1.945       .  S
O82        C1038   1.276   1_455  A
O83          C95   1.271       .  A
O84       Zn1023   2.001   1_455  S
O84          C96   1.271       .  A
O85          C94   1.270       .  A
O86          C96   1.272       .  A
O87          C95   1.273       .  A
O88          C97   1.278       .  A
O89          C98   1.273       .  A
O90          C97   1.268       .  A
O91        Zn552   2.032       .  S
O91         C570   1.274       .  A
O92        Zn552   2.049   1_545  S
O92          C99   1.275       .  A
O93        Zn549   2.018   1_545  S
O93        C1043   1.273   1_455  A
C94        C1113   1.469       .  S
C94        O1026   1.275       .  A
C95         C218   1.471       .  S
C96         C162   1.474       .  S
C97         C234   1.470       .  S
C98         C629   1.478       .  S
C98         O563   1.275       .  A
C99         C153   1.485       .  S
C99        O1037   1.272       .  A
C100        N101   1.356       .  A
C100        N105   1.349       .  A
C100        C178   1.466       .  S
N101        C102   1.359       .  A
C102        N103   1.364       .  A
C102        C158   1.474       .  S
N103        C104   1.361       .  A
C104        N105   1.354       .  A
C104        C149   1.474       .  S
C106        N107   1.360       .  A
C106        N111   1.361       .  A
C106        C146   1.482       .  S
N107        C108   1.361       .  A
C108        N109   1.359       .  A
C108        C202   1.480       .  S
N109        C110   1.360       .  A
C110        N111   1.361       .  A
C110        C154   1.482       .  S
C112        N113   1.359       .  A
C112        N117   1.367       .  A
C112        C173   1.481       .  S
N113        C114   1.356       .  A
C114        N115   1.352       .  A
C114        C198   1.466       .  S
N115        C116   1.355       .  A
C116        N117   1.364       .  A
C116        C141   1.481       .  S
Zn118       O122   1.948       .  S
Zn118       O123   2.035       .  S
Zn118       O127   2.022       .  S
Zn118       O134   1.979       .  S
Zn119       O122   1.947       .  S
Zn119       O124   2.004       .  S
Zn119       O126   2.033       .  S
Zn119       O130   1.995       .  S
Zn120       O122   1.949       .  S
Zn120       O125   2.021       .  S
Zn120       O128   2.016       .  S
Zn120       O131   1.992       .  S
Zn121       O122   1.983       .  S
Zn121       O129   2.070       .  S
Zn121       O132   2.045       .  S
Zn121       O133   2.067       .  S
O123        C135   1.275       .  A
O124        C136   1.272       .  A
O125        C137   1.272       .  A
O126        C135   1.273       .  A
O127        C137   1.273       .  A
O128        C136   1.274       .  A
O129        C138   1.281       .  A
O130        C139   1.273       .  A
O131        C138   1.269       .  A
O132        C139   1.276       .  A
O133        C140   1.280       .  A
O134        C140   1.270       .  A
C135        C145   1.481       .  S
C136        C150   1.467       .  S
C137        C142   1.472       .  S
C138        C221   1.483       .  S
C139        C194   1.481       .  S
C140        C166   1.471       .  S
C141        C142   1.350       .  D
C141        H143   1.086       .  S
C142        H144   1.087       .  S
C145        C146   1.346       .  D
C145        H147   1.087       .  S
C146        H148   1.087       .  S
C149        C150   1.347       .  D
C149        H151   1.086       .  S
C150        H152   1.087       .  S
C153       C1098   1.349       .  D
C153        H155   1.086       .  S
C154       C1097   1.349       .  D
C154        H156   1.086       .  S
C157        C570   1.478   1_545  S
C157        C158   1.344       .  D
C157        H159   1.086       .  S
C158        H632   1.087   1_545  S
H160        C630   1.088       .  S
C161        C162   1.342       .  D
C161        H163   1.087       .  S
C162        H164   1.087       .  S
C165        C166   1.343       .  D
C165        H167   1.086       .  S
C166        H168   1.087       .  S
C169       C1038   1.462   1_455  S
C169        C642   1.334       .  D
C169       H1115   1.087   1_455  S
C170        C641   1.337       .  D
C170        H172   1.087       .  S
H171       C1113   1.087       .  S
C173        C174   1.344       .  D
C173        H411   1.087       .  S
C174        C299   1.484       .  S
C174        H176   1.087       .  S
H175        C409   1.087       .  S
C177        C650   1.340       .  D
C177        H179   1.087       .  S
C178        C649   1.340   1_545  D
C178        H180   1.087       .  S
C181        C182   1.339       .  D
C181        H183   1.087       .  S
C182        H184   1.087       .  S
C185        C534   1.476       .  S
C185        C422   1.344       .  D
C185        H187   1.087       .  S
C186        C421   1.341       .  D
C186        H660   1.086       .  S
H188        C658   1.087       .  S
C189        C190   1.348       .  D
C189        H191   1.087       .  S
C190        H192   1.086       .  S
C193        C194   1.346       .  D
C193        H195   1.087       .  S
C194        H196   1.086       .  S
C197        C434   1.341       .  D
C197        H435   1.087       .  S
C198        C433   1.341       .  D
C198        H436   1.087       .  S
H199        C433   1.086       .  S
H200        C434   1.087       .  S
C201        C978   1.477       .  S
C201        C202   1.344       .  D
C201        H203   1.087       .  S
C202       H1148   1.087   1_455  S
H204       C1146   1.087       .  S
C205        C271   1.478       .  S
C205       C1150   1.339       .  D
C205       H1387   1.087       .  S
C206       C1149   1.339       .  D
C206       H1152   1.087   1_455  S
H207       C1385   1.087       .  S
H208       C1150   1.087       .  S
C209        C210   1.349       .  D
C209        H211   1.086       .  S
C210        H212   1.087       .  S
C213        C214   1.348       .  D
C213        H215   1.086       .  S
C214        H216   1.087       .  S
C217        C218   1.341       .  D
C217        H219   1.087       .  S
C218        H220   1.087       .  S
C221        C222   1.339       .  D
C221        H223   1.087       .  S
C222        H224   1.087       .  S
C225        C226   1.344       .  D
C225        H227   1.087       .  S
C226        H228   1.086       .  S
C229        C230   1.338       .  D
C229        H231   1.087       .  S
C230        H232   1.086       .  S
C233        C234   1.334       .  D
C233        H235   1.087       .  S
C234        H236   1.087       .  S
C237        N238   1.358       .  A
C237        N242   1.358       .  A
C237        C461   1.470       .  S
N238        C239   1.354       .  A
C239        N240   1.359       .  A
C239        C469   1.473       .  S
N240        C241   1.357       .  A
C241        N242   1.360       .  A
C241        C465   1.474       .  S
C243        N244   1.356       .  A
C243        N248   1.370       .  A
C243        C450   1.486       .  S
N244        C245   1.354       .  A
C245        N246   1.358       .  A
C245        C458   1.475       .  S
N246        C247   1.358       .  A
C247        N248   1.368       .  A
C247        C453   1.485       .  S
Zn249       O253   1.963   1_554  S
Zn249       O254   2.024   1_554  S
Zn250       O253   1.947       .  S
Zn250       O255   2.006       .  S
Zn250       O257   1.999       .  S
Zn250       O261   2.030       .  S
Zn251       O253   1.958       .  S
Zn251       O259   2.015       .  S
Zn251      O1206   2.018       .  S
Zn252      O1197   1.928   1_455  S
Zn252       O260   1.986       .  S
Zn252       O263   2.004       .  S
Zn252       O264   1.979       .  S
O253      Zn1196   1.947       .  S
O254        C266   1.273       .  A
O255        C267   1.271       .  A
O256        C268   1.269       .  A
O257        C266   1.274       .  A
O258        C268   1.283       .  A
O259        C267   1.274       .  A
O260        C269   1.271   1_556  A
O261        C270   1.274       .  A
O262      Zn1195   2.028   1_454  S
O262        C269   1.272       .  A
O263       C1214   1.270       .  A
O264       C1215   1.269   1_556  A
C266        C445   1.474       .  S
C267        C462   1.467       .  S
C268        C449   1.484       .  S
C269        C433   1.471       .  S
C270       C1381   1.479       .  S
C270       O1207   1.272       .  A
C271       O1208   1.271   1_554  A
C272        N273   1.355       .  A
C272        N277   1.356       .  A
C272        C429   1.473       .  S
N273        C274   1.360       .  A
C274        N275   1.358       .  A
C274        C426   1.476       .  S
N275        C276   1.360       .  A
C276        N277   1.356       .  A
C276        C446   1.471       .  S
Zn278       O282   1.952       .  S
Zn278       O283   2.014       .  S
Zn278       O759   2.028       .  S
Zn278       O294   2.017       .  S
Zn279       O282   1.964       .  S
Zn279       O286   2.017       .  S
Zn280       O754   1.952   1_545  S
Zn280       O285   2.035       .  S
Zn280       O291   2.026   1_556  S
Zn281       O282   1.949       .  S
Zn281       O289   2.009       .  S
Zn281       O292   2.036       .  S
Zn281       O293   2.017       .  S
O282       Zn752   1.956       .  S
O283        C295   1.275       .  A
O284        C296   1.266       .  A
O285        C297   1.273       .  A
O286        C295   1.273       .  A
O287       Zn750   1.986   1_545  S
O287        C297   1.267       .  A
O288        C768   1.270       .  A
O289        C298   1.274       .  A
O291        C770   1.275   1_545  A
O292        C299   1.276   1_556  A
O293        C300   1.273       .  A
O294        C300   1.275       .  A
C295        C466   1.475       .  S
C296        C413   1.459       .  S
C296        O760   1.273       .  A
C297        C425   1.467       .  S
C298        C893   1.474   1_556  S
C298        O763   1.272       .  A
C300        C417   1.471       .  S
C301        N302   1.360       .  A
C301        N306   1.356       .  A
C301        C406   1.475       .  S
N302        C303   1.359       .  A
C303        N304   1.363       .  A
C303        C442   1.482       .  S
N304        C305   1.360       .  A
C305        N306   1.357       .  A
C305        C422   1.476       .  S
C307        N308   1.358       .  A
C307        N312   1.355       .  A
C307        C397   1.469       .  S
N308        C309   1.360       .  A
C309        N310   1.356       .  A
C309        C418   1.469       .  S
N310        C311   1.358       .  A
C311        N312   1.352       .  A
C311        C401   1.467       .  S
Zn313      O1261   1.958   1_455  S
Zn313       O318   2.037       .  S
Zn313       O322   2.008       .  S
Zn313       O801   2.032       .  S
Zn314       O317   1.946       .  S
Zn314       O319   2.040       .  S
Zn314       O321   2.001       .  S
Zn314       O325   2.005       .  S
Zn315       O317   1.965       .  S
Zn315      O1264   2.013       .  S
Zn315       O323   2.053       .  S
Zn315       O326   2.030       .  S
Zn316       O317   1.952       .  S
Zn316       O324   1.991       .  S
Zn316       O799   1.994       .  S
Zn316       O800   2.023       .  S
O317      Zn1257   1.963       .  S
O318       C1274   1.276   1_455  A
O319        C331   1.274       .  A
O320      Zn1259   2.010   1_455  S
O320        C332   1.274       .  A
O321        C330   1.271       .  A
O322        C332   1.274       .  A
O323        C331   1.277       .  A
O324        C333   1.270       .  A
O325        C334   1.274       .  A
O326        C333   1.276       .  A
O327       Zn788   2.074   1_545  S
O327        C806   1.281   1_545  A
O328       Zn788   2.067   1_545  S
O328        C335   1.280       .  A
O329       Zn785   2.017   1_545  S
O329       C1279   1.274   1_455  A
C330       C1349   1.469       .  S
C330       O1262   1.277       .  A
C331        C454   1.490       .  S
C332        C398   1.464       .  S
C333        C470   1.470       .  S
C334        C865   1.467       .  S
C334        O799   1.269       .  A
C335        C389   1.486       .  S
C335       O1273   1.273       .  A
C336        N337   1.359       .  A
C336        N341   1.357       .  A
C336        C414   1.477       .  S
N337        C338   1.364       .  A
C338        N339   1.354       .  A
C338        C394   1.480       .  S
N339        C340   1.358       .  A
C340        N341   1.351       .  A
C340        C385   1.465       .  S
C342        N343   1.356       .  A
C342        N347   1.361       .  A
C342        C382   1.477       .  S
N343        C344   1.359       .  A
C344        N345   1.356       .  A
C344        C438   1.471       .  S
N345        C346   1.359       .  A
C346        N347   1.360       .  A
C346        C390   1.479       .  S
C348        N349   1.351       .  A
C348        N353   1.363       .  A
C348        C409   1.475       .  S
N349        C350   1.354       .  A
C350        N351   1.357       .  A
C350        C434   1.467       .  S
N351        C352   1.360       .  A
C352        N353   1.362       .  A
C352        C377   1.479       .  S
Zn354       O358   1.952       .  S
Zn354       O359   2.045       .  S
Zn354       O363   2.030       .  S
Zn354       O370   2.013       .  S
Zn355       O358   1.936       .  S
Zn355       O360   1.969       .  S
Zn355       O362   1.999       .  S
Zn355       O366   1.998       .  S
Zn356       O358   1.961       .  S
Zn356       O361   2.032       .  S
Zn356       O364   2.025       .  S
Zn356       O367   2.015       .  S
Zn357       O358   1.961       .  S
Zn357       O365   2.014       .  S
Zn357       O368   2.018       .  S
Zn357       O369   1.995       .  S
O359        C371   1.276       .  A
O360        C372   1.267       .  A
O361        C373   1.275       .  A
O362        C371   1.269       .  A
O363        C373   1.275       .  A
O364        C372   1.276       .  A
O365        C374   1.271       .  A
O366        C375   1.271       .  A
O367        C374   1.274       .  A
O368        C375   1.271       .  A
O369        C376   1.271       .  A
O370        C376   1.276       .  A
C371        C381   1.474       .  S
C372        C386   1.461       .  S
C373        C378   1.477       .  S
C374        C457   1.475       .  S
C375        C430   1.473       .  S
C376        C402   1.467       .  S
C377        C378   1.346       .  D
C377        H379   1.087       .  S
C378        H380   1.087       .  S
C381        C382   1.341       .  D
C381        H383   1.086       .  S
C382        H384   1.086       .  S
C385        C386   1.335       .  D
C385        H387   1.087       .  S
C386        H388   1.088       .  S
C389       C1334   1.353       .  D
C389        H391   1.086       .  S
C390       C1333   1.348       .  D
C390        H392   1.087       .  S
C393        C806   1.470   1_545  S
C393        C394   1.337       .  D
C393        H395   1.087   1_545  S
C394        H868   1.087       .  S
H396        C866   1.087       .  S
C397        C398   1.343       .  D
C397        H399   1.086       .  S
C398        H400   1.086       .  S
C401        C402   1.339       .  D
C401        H403   1.087       .  S
C402        H404   1.087       .  S
C405       C1274   1.471   1_455  S
C405        C878   1.339       .  D
C405       H1351   1.087   1_455  S
C406        C877   1.340       .  D
C406        H408   1.087       .  S
H407       C1349   1.087       .  S
C409        C410   1.337       .  D
C410        H412   1.087       .  S
C413        C886   1.337       .  D
C413        H415   1.087       .  S
C414        C885   1.344       .  D
C414        H416   1.086   1_545  S
C417        C418   1.341       .  D
C417        H419   1.087       .  S
C418        H420   1.087       .  S
C421        C770   1.467   1_545  S
C421        H423   1.087   1_545  S
C422        H896   1.087   1_545  S
H424        C894   1.087       .  S
C425        C426   1.342       .  D
C425        H427   1.087       .  S
C426        H428   1.087       .  S
C429        C430   1.344       .  D
C429        H431   1.087       .  S
C430        H432   1.087       .  S
C437       C1214   1.469       .  S
C437        C438   1.341       .  D
C437        H439   1.087       .  S
C438       H1384   1.087   1_455  S
H440       C1382   1.087       .  S
C441       C1386   1.338       .  D
C441       H1151   1.087       .  S
C442       C1385   1.342       .  D
C442       H1388   1.087   1_455  S
H443       C1149   1.087       .  S
H444       C1386   1.087       .  S
C445        C446   1.343       .  D
C445        H447   1.086       .  S
C446        H448   1.087       .  S
C449        C450   1.339       .  D
C449        H451   1.086       .  S
C450        H452   1.087       .  S
C453        C454   1.346       .  D
C453        H455   1.087       .  S
C454        H456   1.087       .  S
C457        C458   1.344       .  D
C457        H459   1.086       .  S
C458        H460   1.087       .  S
C461        C462   1.341       .  D
C461        H463   1.087       .  S
C462        H464   1.087       .  S
C465        C466   1.343       .  D
C465        H467   1.087       .  S
C466        H468   1.086       .  S
C469        C470   1.340       .  D
C469        H471   1.086       .  S
C470        H472   1.087       .  S
C473        N474   1.366       .  A
C473        N478   1.363       .  A
C473        C697   1.479       .  S
N474        C475   1.362       .  A
C475        N476   1.348       .  A
C475        C705   1.468       .  S
N476        C477   1.348       .  A
C477        N478   1.360       .  A
C477        C701   1.466       .  S
C479        N480   1.364       .  A
C479        N484   1.367       .  A
C479        C686   1.492       .  S
N480        C481   1.364       .  A
C481        N482   1.353       .  A
C481        C694   1.481       .  S
N482        C483   1.354       .  A
C483        N484   1.363       .  A
C483        C689   1.474       .  S
Zn485       O489   1.969       .  S
Zn485       O490   2.017       .  S
Zn485       O730   2.024       .  S
Zn485       O737   2.036       .  S
Zn486       O489   1.947       .  S
Zn486       O491   2.025       .  S
Zn486       O493   2.018       .  S
Zn486       O497   2.009       .  S
Zn487       O489   1.954       .  S
Zn487       O728   2.004       .  S
Zn487       O495   2.031       .  S
Zn487      O1442   2.016       .  S
Zn488      O1433   1.954   1_455  S
Zn488       O496   2.017       .  S
Zn488       O499   2.008       .  S
Zn488       O500   2.015       .  S
O489      Zn1432   1.956       .  S
O490        C502   1.272       .  A
O491        C503   1.273       .  A
O492       Zn723   2.015   1_554  S
O492        C504   1.273       .  A
O493        C502   1.275       .  A
O494       Zn721   2.080   1_554  S
O494        C504   1.281       .  A
O495        C503   1.274       .  A
O496        C505   1.273       .  A
O497        C506   1.274       .  A
O498      Zn1431   2.012   1_455  S
O498        C505   1.271       .  A
O499       C1450   1.272       .  A
O500       C1451   1.272       .  A
O501       Zn721   2.073   1_554  S
O501        C743   1.281   1_554  A
C502        C681   1.477       .  S
C503        C698   1.479       .  S
C504        C685   1.489       .  S
C505        C669   1.472       .  S
C506       C1617   1.473       .  S
C506       O1443   1.274       .  A
C507        C913   1.482       .  S
C507       O1444   1.272       .  A
C507        O737   1.276       .  A
C508        N509   1.355       .  A
C508        N513   1.356       .  A
C508        C665   1.472       .  S
N509        C510   1.358       .  A
C510        N511   1.361       .  A
C510        C662   1.477       .  S
N511        C512   1.363       .  A
C512        N513   1.356       .  A
C512        C682   1.475       .  S
Zn514       O518   1.950       .  S
Zn514       O519   1.999       .  S
Zn514       O530   2.031       .  S
Zn515       O518   1.974       .  S
Zn515       O756   2.025       .  S
Zn515       O522   2.013       .  S
Zn515       O762   2.017       .  S
Zn516       O521   2.033       .  S
Zn516       O760   2.010       .  S
Zn516       O527   2.020       .  S
Zn517       O518   1.951       .  S
Zn517       O525   2.026       .  S
Zn517       O528   2.031       .  S
Zn517       O529   2.035       .  S
O519        C531   1.275       .  A
O520       Zn751   2.009   1_554  S
O520        C532   1.271       .  A
O521        C533   1.274       .  A
O522        C531   1.271       .  A
O523        C533   1.271       .  A
O524       Zn752   1.985   1_554  S
O525        C534   1.276   1_565  A
O526       Zn751   2.036   1_554  S
O526        C771   1.274       .  A
O528        C535   1.275       .  A
O529        C536   1.276       .  A
O530        C536   1.275       .  A
C531        C702   1.473       .  S
C532        C649   1.471       .  S
C533        C661   1.472       .  S
C535        C882   1.479       .  S
C535        O762   1.272       .  A
C536        C653   1.479       .  S
C537        N538   1.358       .  A
C537        N542   1.352       .  A
C537        C642   1.462       .  S
N538        C539   1.356       .  A
C539        N540   1.364       .  A
C539        C678   1.479       .  S
N540        C541   1.360       .  A
C541        N542   1.353       .  A
C541        C658   1.469       .  S
C543        N544   1.356       .  A
C543        N548   1.356       .  A
C543        C633   1.476       .  S
N544        C545   1.361       .  A
C545        N546   1.365       .  A
C545        C654   1.482       .  S
N546        C547   1.364       .  A
C547        N548   1.355       .  A
C547        C637   1.478       .  S
Zn549      O1497   1.960   1_455  S
Zn549       O554   2.015       .  S
Zn549       O558   2.025       .  S
Zn550       O553   1.942       .  S
Zn550       O555   2.020       .  S
Zn550       O557   2.005       .  S
Zn550       O561   2.008       .  S
Zn551       O553   1.965       .  S
Zn551      O1500   2.023       .  S
Zn551       O559   2.037       .  S
Zn551       O562   2.009       .  S
Zn552       O553   1.957       .  S
Zn552       O560   2.022       .  S
O553      Zn1493   1.936       .  S
O554       C1510   1.275       .  A
O555        C567   1.272       .  A
O556      Zn1495   2.005   1_455  S
O556        C568   1.271       .  A
O557        C566   1.273       .  A
O558        C568   1.274       .  A
O559        C567   1.276       .  A
O560        C569   1.278       .  A
O561        C570   1.275       .  A
O562        C569   1.272       .  A
O564        C571   1.275       .  A
O565       C1515   1.273   1_455  A
C566       C1585   1.464       .  S
C566       O1498   1.270       .  A
C567        C690   1.481       .  S
C568        C634   1.470       .  S
C569        C706   1.476       .  S
C571        C625   1.477       .  S
C571       O1509   1.272       .  A
C572        N573   1.352       .  A
C572        N577   1.354       .  A
C572        C650   1.470       .  S
N573        C574   1.357       .  A
C574        N575   1.364       .  A
C574        C630   1.471       .  S
N575        C576   1.363       .  A
C576        N577   1.351       .  A
C576        C621   1.467       .  S
C578        N579   1.359       .  A
C578        N583   1.361       .  A
C578        C618   1.484       .  S
N579        C580   1.362       .  A
C580        N581   1.360       .  A
C580        C674   1.480       .  S
N581        C582   1.360       .  A
C582        N583   1.361       .  A
C582        C626   1.482       .  S
C584        N585   1.354       .  A
C584        N589   1.364       .  A
C584        C645   1.475       .  S
N585        C586   1.353       .  A
C586        N587   1.355       .  A
C586        C670   1.470       .  S
N587        C588   1.359       .  A
C588        N589   1.365       .  A
C588        C613   1.478       .  S
Zn590       O594   1.960       .  S
Zn590       O595   2.057       .  S
Zn590       O599   2.033       .  S
Zn590       O606   2.025       .  S
Zn591       O594   1.944       .  S
Zn591       O596   1.993       .  S
Zn591       O598   2.014       .  S
Zn591       O602   1.992       .  S
Zn592       O594   1.957       .  S
Zn592       O597   2.020       .  S
Zn592       O600   2.024       .  S
Zn592       O603   1.993       .  S
Zn593       O594   1.973       .  S
Zn593       O601   2.058       .  S
Zn593       O604   2.030       .  S
Zn593       O605   2.038       .  S
O595        C607   1.277       .  A
O596        C608   1.268       .  A
O597        C609   1.274       .  A
O598        C607   1.272       .  A
O599        C609   1.276       .  A
O600        C608   1.276       .  A
O601        C610   1.279       .  A
O602        C611   1.272       .  A
O603        C610   1.268       .  A
O604        C611   1.274       .  A
O605        C612   1.276       .  A
O606        C612   1.278       .  A
C607        C617   1.481       .  S
C608        C622   1.473       .  S
C609        C614   1.473       .  S
C610        C693   1.480       .  S
C611        C666   1.475       .  S
C612        C638   1.484       .  S
C613        C614   1.347       .  D
C613        H615   1.087       .  S
C614        H616   1.087       .  S
C617        C618   1.345       .  D
C617        H619   1.087       .  S
C618        H620   1.087       .  S
C621        C622   1.336       .  D
C621        H623   1.087       .  S
C622        H624   1.087       .  S
C625       C1570   1.346       .  D
C625        H627   1.087       .  S
C626       C1569   1.350       .  D
C626        H628   1.086       .  S
C629        C630   1.344       .  D
C629        H631   1.086       .  S
C633        C634   1.344       .  D
C633        H635   1.087       .  S
C634        H636   1.086       .  S
C637        C638   1.344       .  D
C637        H639   1.087       .  S
C638        H640   1.086       .  S
C641       C1510   1.464   1_545  S
C641       H1587   1.087   1_455  S
C642        H644   1.087       .  S
H643       C1585   1.087       .  S
C645        C646   1.343       .  D
C645        H883   1.087   1_554  S
C646        C771   1.482       .  S
C646        H648   1.086       .  S
H647        C881   1.087       .  S
C649        H651   1.086       .  S
C650        H652   1.086       .  S
C653        C654   1.349       .  D
C653        H655   1.087       .  S
C654        H656   1.086       .  S
C657        C894   1.341       .  D
C657        H659   1.087       .  S
C658        C893   1.341       .  D
C661        C662   1.345       .  D
C661        H663   1.087       .  S
C662        H664   1.087       .  S
C665        C666   1.345       .  D
C665        H667   1.087       .  S
C666        H668   1.086       .  S
C669        C906   1.341       .  D
C669        H907   1.086       .  S
C670        C905   1.343       .  D
C670        H908   1.087       .  S
H671        C905   1.086       .  S
H672        C906   1.086       .  S
C673       C1450   1.474       .  S
C673        C674   1.344       .  D
C673        H675   1.087       .  S
C674       H1620   1.087   1_455  S
H676       C1618   1.087       .  S
C677        C743   1.478   1_554  S
C677       C1622   1.340       .  D
C677       H1859   1.087   1_554  S
C678       C1621   1.339       .  D
C678       H1624   1.087   1_455  S
H679       C1857   1.087       .  S
H680       C1622   1.087       .  S
C681        C682   1.343       .  D
C681        H683   1.086       .  S
C682        H684   1.087       .  S
C685        C686   1.347       .  D
C685        H687   1.087       .  S
C686        H688   1.086       .  S
C689        C690   1.342       .  D
C689        H691   1.087       .  S
C690        H692   1.087       .  S
C693        C694   1.340       .  D
C693        H695   1.087       .  S
C694        H696   1.087       .  S
C697        C698   1.344       .  D
C697        H699   1.087       .  S
C698        H700   1.087       .  S
C701        C702   1.338       .  D
C701        H703   1.087       .  S
C702        H704   1.086       .  S
C705        C706   1.338       .  D
C705        H707   1.087       .  S
C706        H708   1.086       .  S
C709        N710   1.361       .  A
C709        N714   1.352       .  A
C709        C933   1.466       .  S
N710        C711   1.366       .  A
C711        N712   1.356       .  A
C711        C941   1.481       .  S
N712        C713   1.358       .  A
C713        N714   1.351       .  A
C713        C937   1.467       .  S
C715        N716   1.360       .  A
C715        N720   1.352       .  A
C715        C922   1.469       .  S
N716        C717   1.362       .  A
C717        N718   1.361       .  A
C717        C930   1.477       .  S
N718        C719   1.357       .  A
C719        N720   1.354       .  A
C719        C925   1.469       .  S
Zn721       O725   1.982       .  S
Zn721       O726   2.055       .  S
Zn722       O725   1.966       .  S
Zn722       O727   2.034       .  S
Zn722       O729   2.012       .  S
Zn722       O733   2.040       .  S
Zn723       O725   1.949       .  S
Zn723       O731   2.004       .  S
Zn723      O1678   2.005       .  S
Zn724      O1669   1.939   1_455  S
Zn724       O732   1.999       .  S
Zn724       O735   2.014       .  S
Zn724       O736   1.975       .  S
O725      Zn1668   1.944       .  S
O726        C738   1.279       .  A
O727        C739   1.274       .  A
O728        C740   1.275       .  A
O729        C738   1.275       .  A
O730        C740   1.273       .  A
O731        C739   1.274       .  A
O732        C741   1.270       .  A
O733        C742   1.274       .  A
O734      Zn1667   2.014   1_455  S
O734        C741   1.270       .  A
O735       C1686   1.271       .  A
O736       C1687   1.268   1_556  A
C738        C917   1.484       .  S
C739        C934   1.479       .  S
C740        C921   1.475       .  S
C741        C905   1.468   1_556  S
C742       C1853   1.474       .  S
C742       O1679   1.271       .  A
C743       O1680   1.269       .  A
C744        N745   1.355       .  A
C744        N749   1.360       .  A
C744        C901   1.478       .  S
N745        C746   1.357       .  A
C746        N747   1.361       .  A
C746        C898   1.478       .  S
N747        C748   1.363       .  A
C748        N749   1.362       .  A
C748        C918   1.482       .  S
Zn750       O754   1.931       .  S
Zn750       O755   1.979       .  S
Zn750       O766   1.967       .  S
Zn751       O754   1.969       .  S
Zn751       O758   2.020       .  S
Zn752       O757   2.018       .  S
Zn752       O763   2.022       .  S
Zn753       O754   1.947       .  S
Zn753       O761   2.000       .  S
Zn753       O764   2.008       .  S
Zn753       O765   2.028       .  S
O755        C767   1.268       .  A
O756        C768   1.274   1_565  A
O757        C769   1.272       .  A
O758        C767   1.275       .  A
O759        C769   1.273       .  A
O761        C770   1.271   1_556  A
O764        C771   1.274   1_556  A
O765        C772   1.272       .  A
O766        C772   1.268       .  A
C767        C938   1.465       .  S
C768        C885   1.470       .  S
C769        C897   1.474       .  S
C772        C889   1.468       .  S
C773        N774   1.357       .  A
C773        N778   1.353       .  A
C773        C878   1.474       .  S
N774        C775   1.357       .  A
C775        N776   1.367       .  A
C775        C914   1.483       .  S
N776        C777   1.366       .  A
C777        N778   1.357       .  A
C777        C894   1.478       .  S
C779        N780   1.357       .  A
C779        N784   1.363       .  A
C779        C869   1.472       .  S
N780        C781   1.354       .  A
C781        N782   1.351       .  A
C781        C890   1.456       .  S
N782        C783   1.352       .  A
C783        N784   1.364       .  A
C783        C873   1.471       .  S
Zn785      O1733   1.964   1_455  S
Zn785       O790   2.038   1_565  S
Zn785       O794   2.026       .  S
Zn786       O789   1.930       .  S
Zn786       O791   2.006       .  S
Zn786       O793   1.983       .  S
Zn786       O797   1.958       .  S
Zn787       O789   1.932       .  S
Zn787      O1736   1.986       .  S
Zn787       O795   1.999       .  S
Zn787       O798   1.964       .  S
Zn788       O789   1.978       .  S
Zn788       O796   2.075       .  S
O789      Zn1729   1.955       .  S
O790       C1746   1.275   1_455  A
O791        C803   1.269       .  A
O792      Zn1731   2.011   1_455  S
O792        C804   1.271       .  A
O793        C802   1.268   1_565  A
O794        C804   1.276       .  A
O795        C803   1.269       .  A
O796        C805   1.281       .  A
O797        C806   1.266       .  A
O798        C805   1.266       .  A
O800        C807   1.272       .  A
O801       C1751   1.274   1_455  A
C802       C1821   1.466       .  S
C802       O1734   1.276       .  A
C803        C926   1.465       .  S
C804        C870   1.473       .  S
C805        C942   1.474       .  S
C807        C861   1.487       .  S
C807       O1745   1.275       .  A
C808        N809   1.355       .  A
C808        N813   1.351       .  A
C808        C886   1.465       .  S
N809        C810   1.351       .  A
C810        N811   1.358       .  A
C810        C866   1.466       .  S
N811        C812   1.356       .  A
C812        N813   1.357       .  A
C812        C857   1.462       .  S
C814        N815   1.358       .  A
C814        N819   1.361       .  A
C814        C854   1.475       .  S
N815        C816   1.359       .  A
C816        N817   1.357       .  A
C816        C910   1.477       .  S
N817        C818   1.361       .  A
C818        N819   1.359       .  A
C818        C862   1.480       .  S
C820        N821   1.359       .  A
C820        N825   1.363       .  A
C820        C881   1.480       .  S
N821        C822   1.359       .  A
C822        N823   1.355       .  A
C822        C906   1.471       .  S
N823        C824   1.357       .  A
C824        N825   1.360       .  A
C824        C849   1.477       .  S
Zn826       O830   1.948       .  S
Zn826       O831   2.024       .  S
Zn826       O835   2.019       .  S
Zn826       O842   1.995       .  S
Zn827       O830   1.945       .  S
Zn827       O832   1.992       .  S
Zn827       O834   2.017       .  S
Zn827       O838   2.010       .  S
Zn828       O830   1.949       .  S
Zn828       O833   2.025       .  S
Zn828       O836   2.001       .  S
Zn828       O839   2.004       .  S
Zn829       O830   1.960       .  S
Zn829       O837   2.034       .  S
Zn829       O840   2.044       .  S
Zn829       O841   2.035       .  S
O831        C843   1.274       .  A
O832        C844   1.272       .  A
O833        C845   1.273       .  A
O834        C843   1.272       .  A
O835        C845   1.273       .  A
O836        C844   1.271       .  A
O837        C846   1.275       .  A
O838        C847   1.274       .  A
O839        C846   1.273       .  A
O840        C847   1.276       .  A
O841        C848   1.279       .  A
O842        C848   1.271       .  A
C843        C853   1.474       .  S
C844        C858   1.462       .  S
C845        C850   1.473       .  S
C846        C929   1.477       .  S
C847        C902   1.483       .  S
C848        C874   1.473       .  S
C849        C850   1.345       .  D
C849        H851   1.087       .  S
C850        H852   1.087       .  S
C853        C854   1.342       .  D
C853        H855   1.087       .  S
C854        H856   1.087       .  S
C857        C858   1.340       .  D
C857        H859   1.087       .  S
C858        H860   1.087       .  S
C861       C1806   1.351       .  D
C861        H863   1.086       .  S
C862       C1805   1.345       .  D
C862        H864   1.087       .  S
C865        C866   1.338       .  D
C865        H867   1.086       .  S
C869        C870   1.340       .  D
C869        H871   1.087       .  S
C870        H872   1.087       .  S
C873        C874   1.337       .  D
C873        H875   1.087       .  S
C874        H876   1.087       .  S
C877       C1746   1.473   1_455  S
C877       H1823   1.087   1_455  S
C878        H880   1.087       .  S
H879       C1821   1.087       .  S
C881        C882   1.345       .  D
C882        H884   1.086       .  S
C885        H887   1.086       .  S
C886        H888   1.087       .  S
C889        C890   1.341       .  D
C889        H891   1.087       .  S
C890        H892   1.087       .  S
C893        H895   1.086   1_554  S
C897        C898   1.346       .  D
C897        H899   1.087       .  S
C898        H900   1.086       .  S
C901        C902   1.346       .  D
C901        H903   1.087       .  S
C902        H904   1.086       .  S
C909       C1686   1.476       .  S
C909        C910   1.343       .  D
C909        H911   1.087       .  S
C910       H1856   1.087   1_455  S
H912       C1854   1.086       .  S
C913       C1858   1.344       .  D
C913       H1623   1.087       .  S
C914       C1857   1.342       .  D
C914       H1860   1.087   1_455  S
H915       C1621   1.087       .  S
H916       C1858   1.087       .  S
C917        C918   1.349       .  D
C917        H919   1.086       .  S
C918        H920   1.087       .  S
C921        C922   1.341       .  D
C921        H923   1.086       .  S
C922        H924   1.087       .  S
C925        C926   1.344       .  D
C925        H927   1.087       .  S
C926        H928   1.087       .  S
C929        C930   1.347       .  D
C929        H931   1.086       .  S
C930        H932   1.087       .  S
C933        C934   1.342       .  D
C933        H935   1.086       .  S
C934        H936   1.087       .  S
C937        C938   1.337       .  D
C937        H939   1.087       .  S
C938        H940   1.087       .  S
C941        C942   1.337       .  D
C941        H943   1.086       .  S
C942        H944   1.087       .  S
C945        N946   1.365       .  A
C945        N950   1.358       .  A
C945       C1169   1.472       .  S
N946        C947   1.364       .  A
C947        N948   1.347       .  A
C947       C1177   1.463       .  S
N948        C949   1.345       .  A
C949        N950   1.356       .  A
C949       C1173   1.458       .  S
C951        N952   1.358       .  A
C951        N956   1.353       .  A
C951       C1158   1.472       .  S
N952        C953   1.360       .  A
C953        N954   1.363       .  A
C953       C1166   1.480       .  S
N954        C955   1.362       .  A
C955        N956   1.356       .  A
C955       C1161   1.474       .  S
Zn957       O961   1.970       .  S
Zn957       O962   2.028       .  S
Zn957      O1202   2.039       .  S
Zn957      O1209   2.056       .  S
Zn958       O961   1.958       .  S
Zn958       O963   2.037       .  S
Zn958       O965   2.014       .  S
Zn958       O969   2.038       .  S
Zn959       O961   1.953       .  S
Zn959      O1200   2.012       .  S
Zn959       O967   2.006       .  S
Zn960       O968   2.013       .  S
Zn960       O971   2.016       .  S
Zn960       O972   1.978       .  S
O962        C974   1.276       .  A
O963        C975   1.274       .  A
O964      Zn1195   2.007   1_554  S
O964        C976   1.275       .  A
O965        C974   1.275       .  A
O966      Zn1193   2.030       .  S
O966        C976   1.275       .  A
O967        C975   1.273       .  A
O968        C977   1.271       .  A
O969        C978   1.276   1_655  A
O970        C977   1.270       .  A
O973      Zn1193   2.051       .  S
O973       C1215   1.279   1_655  A
C974       C1153   1.476       .  S
C975       C1170   1.478       .  S
C976       C1157   1.475       .  S
C977       C1141   1.465       .  S
C979       C1385   1.477       .  S
C979       O1209   1.278   1_455  A
C980        N981   1.354       .  A
C980        N985   1.359       .  A
C980       C1137   1.470       .  S
N981        C982   1.355       .  A
C982        N983   1.356       .  A
C982       C1134   1.468       .  S
N983        C984   1.360       .  A
C984        N985   1.360       .  A
C984       C1154   1.476       .  S
Zn986       O990   1.932       .  S
Zn986       O991   1.984       .  S
Zn986      O1467   2.008       .  S
Zn986      O1002   1.986       .  S
Zn987       O990   1.957       .  S
Zn987      O1228   1.968       .  S
Zn987       O994   1.990       .  S
Zn987      O1234   1.986       .  S
Zn988      O1462   1.955   1_545  S
Zn988       O993   2.004       .  S
Zn988      O1232   1.993       .  S
Zn988       O999   2.014       .  S
Zn989       O990   1.955       .  S
Zn989       O997   2.031       .  S
Zn989      O1000   2.050       .  S
Zn989      O1001   2.042       .  S
O990      Zn1460   1.958       .  S
O991       C1003   1.272       .  A
O992      Zn1223   2.017   1_554  S
O992       C1004   1.272       .  A
O993       C1005   1.271       .  A
O994       C1003   1.266       .  A
O995      Zn1458   2.012   1_545  S
O995       C1005   1.271       .  A
O996      Zn1224   2.008   1_554  S
O996       C1476   1.274   1_545  A
O997       C1006   1.278       .  A
O998      Zn1223   2.003   1_554  S
O998       C1243   1.271       .  A
O999       C1478   1.271       .  A
O1000      C1007   1.278       .  A
O1001      C1008   1.277       .  A
O1002      C1008   1.269       .  A
C1003      C1174   1.464       .  S
C1004      C1121   1.466       .  S
C1004      O1468   1.269       .  A
C1005      C1133   1.466       .  S
C1006      C1601   1.476       .  S
C1006      O1471   1.273       .  A
C1007      C1354   1.477       .  S
C1007      O1234   1.267       .  A
C1008      C1125   1.469       .  S
C1009      N1010   1.351       .  A
C1009      N1014   1.354       .  A
C1009      C1114   1.463       .  S
N1010      C1011   1.354       .  A
C1011      N1012   1.366       .  A
C1011      C1150   1.474       .  S
N1012      C1013   1.365       .  A
C1013      N1014   1.355       .  A
C1013      C1130   1.473       .  S
C1015      N1016   1.358       .  A
C1015      N1020   1.351       .  A
C1015      C1105   1.462       .  S
N1016      C1017   1.359       .  A
C1017      N1018   1.362       .  A
C1017      C1126   1.474       .  S
N1018      C1019   1.356       .  A
C1019      N1020   1.356       .  A
C1019      C1109   1.475       .  S
Zn1021     O1026   2.023       .  S
Zn1021     O1030   2.012       .  S
Zn1021     O1509   1.992       .  S
Zn1022     O1025   1.934       .  S
Zn1022     O1027   2.006       .  S
Zn1022     O1029   1.991       .  S
Zn1022     O1033   1.957       .  S
Zn1023     O1025   1.961       .  S
Zn1023     O1031   2.020       .  S
Zn1023     O1034   1.982       .  S
Zn1024     O1025   1.970       .  S
Zn1024     O1032   2.028       .  S
Zn1024     O1507   2.073       .  S
Zn1024     O1508   2.052       .  S
O1027      C1039   1.270       .  A
O1028      C1040   1.272       .  A
O1029      C1038   1.270       .  A
O1030      C1040   1.271       .  A
O1031      C1039   1.271       .  A
O1032      C1041   1.281       .  A
O1033      C1042   1.267       .  A
O1034      C1041   1.269       .  A
O1035     Zn1496   2.041   1_545  S
O1035      C1514   1.275       .  A
O1036     Zn1496   2.040   1_545  S
O1036      C1043   1.275       .  A
O1037     Zn1493   2.008   1_545  S
C1039      C1162   1.468       .  S
C1040      C1106   1.471       .  S
C1041      C1178   1.470       .  S
C1042      C1573   1.483       .  S
C1042      O1507   1.277       .  A
C1043      C1097   1.483   1_655  S
C1044      N1045   1.358       .  A
C1044      N1049   1.353       .  A
C1044      C1122   1.473       .  S
N1045      C1046   1.360       .  A
C1046      N1047   1.363       .  A
C1046      C1102   1.476       .  S
N1047      C1048   1.361       .  A
C1048      N1049   1.356       .  A
C1048      C1093   1.473       .  S
C1050      N1051   1.356       .  A
C1050      N1055   1.359       .  A
C1050      C1090   1.476       .  S
N1051      C1052   1.358       .  A
C1052      N1053   1.361       .  A
C1052      C1146   1.480       .  S
N1053      C1054   1.363       .  A
C1054      N1055   1.362       .  A
C1054      C1098   1.482       .  S
C1056      N1057   1.356       .  A
C1056      N1061   1.363       .  A
C1056      C1117   1.475       .  S
N1057      C1058   1.356       .  A
C1058      N1059   1.354       .  A
C1058      C1142   1.466       .  S
N1059      C1060   1.357       .  A
C1060      N1061   1.360       .  A
C1060      C1085   1.478       .  S
Zn1062     O1066   1.947       .  S
Zn1062     O1067   2.017       .  S
Zn1062     O1071   2.008       .  S
Zn1062     O1078   1.987       .  S
Zn1063     O1066   1.956       .  S
Zn1063     O1068   2.006       .  S
Zn1063     O1070   2.035       .  S
Zn1063     O1074   2.000       .  S
Zn1064     O1066   1.957       .  S
Zn1064     O1069   2.032       .  S
Zn1064     O1072   2.024       .  S
Zn1064     O1075   2.018       .  S
Zn1065     O1066   1.975       .  S
Zn1065     O1073   2.036       .  S
Zn1065     O1076   2.026       .  S
Zn1065     O1077   2.029       .  S
O1067      C1079   1.273       .  A
O1068      C1080   1.273       .  A
O1069      C1081   1.274       .  A
O1070      C1079   1.273       .  A
O1071      C1081   1.271       .  A
O1072      C1080   1.275       .  A
O1073      C1082   1.274       .  A
O1074      C1083   1.273       .  A
O1075      C1082   1.274       .  A
O1076      C1083   1.273       .  A
O1077      C1084   1.275       .  A
O1078      C1084   1.270       .  A
C1079      C1089   1.479       .  S
C1080      C1094   1.470       .  S
C1081      C1086   1.471       .  S
C1082      C1165   1.483       .  S
C1083      C1138   1.475       .  S
C1084      C1110   1.466       .  S
C1085      C1086   1.345       .  D
C1085      H1087   1.087       .  S
C1086      H1088   1.087       .  S
C1089      C1090   1.344       .  D
C1089      H1091   1.087       .  S
C1090      H1092   1.087       .  S
C1093      C1094   1.346       .  D
C1093      H1095   1.086       .  S
C1094      H1096   1.087       .  S
C1097      H1099   1.086   1_455  S
C1098      H1100   1.086       .  S
C1101      C1514   1.481       .  S
C1101      C1102   1.346       .  D
C1101      H1103   1.086       .  S
C1102      H1576   1.087   1_545  S
H1104      C1574   1.087       .  S
C1105      C1106   1.339       .  D
C1105      H1107   1.086       .  S
C1106      H1108   1.087       .  S
C1109      C1110   1.342       .  D
C1109      H1111   1.086       .  S
C1110      H1112   1.087       .  S
C1113      C1586   1.338       .  D
C1114      C1585   1.339   1_545  D
C1114      H1116   1.087       .  S
C1117      C1118   1.341       .  D
C1117      H1355   1.087   1_554  S
C1118      C1243   1.475       .  S
C1118      H1120   1.087       .  S
H1119      C1353   1.087       .  S
C1121      C1594   1.344       .  D
C1121      H1123   1.086       .  S
C1122      C1593   1.343       .  D
C1122      H1124   1.087       .  S
C1125      C1126   1.339       .  D
C1125      H1127   1.087       .  S
C1126      H1128   1.087       .  S
C1129      C1478   1.479       .  S
C1129      C1366   1.342       .  D
C1129      H1131   1.087       .  S
C1130      C1365   1.340       .  D
C1130      H1604   1.087   1_545  S
H1132      C1602   1.087       .  S
C1133      C1134   1.342       .  D
C1133      H1135   1.087       .  S
C1134      H1136   1.087       .  S
C1137      C1138   1.343       .  D
C1137      H1139   1.087       .  S
C1138      H1140   1.086       .  S
C1141      C1378   1.346       .  D
C1141      H1379   1.086       .  S
C1142      C1377   1.341       .  D
C1142      H1380   1.087       .  S
H1143      C1377   1.086       .  S
H1144      C1378   1.086       .  S
C1145      C1146   1.346       .  D
C1145      H1147   1.087       .  S
C1149      C1215   1.471       .  S
C1153      C1154   1.346       .  D
C1153      H1155   1.086       .  S
C1154      H1156   1.086       .  S
C1157      C1158   1.343       .  D
C1157      H1159   1.086       .  S
C1158      H1160   1.087       .  S
C1161      C1162   1.345       .  D
C1161      H1163   1.087       .  S
C1162      H1164   1.086       .  S
C1165      C1166   1.346       .  D
C1165      H1167   1.086       .  S
C1166      H1168   1.087       .  S
C1169      C1170   1.343       .  D
C1169      H1171   1.087       .  S
C1170      H1172   1.086       .  S
C1173      C1174   1.335       .  D
C1173      H1175   1.087       .  S
C1174      H1176   1.086       .  S
C1177      C1178   1.332       .  D
C1177      H1179   1.087       .  S
C1178      H1180   1.087       .  S
C1181      N1182   1.358       .  A
C1181      N1186   1.355       .  A
C1181      C1405   1.468       .  S
N1182      C1183   1.354       .  A
C1183      N1184   1.359       .  A
C1183      C1413   1.472       .  S
N1184      C1185   1.357       .  A
C1185      N1186   1.358       .  A
C1185      C1409   1.473       .  S
C1187      N1188   1.361       .  A
C1187      N1192   1.359       .  A
C1187      C1394   1.479       .  S
N1188      C1189   1.360       .  A
C1189      N1190   1.361       .  A
C1189      C1402   1.481       .  S
N1190      C1191   1.358       .  A
C1191      N1192   1.359       .  A
C1191      C1397   1.478       .  S
Zn1193     O1197   1.967   1_554  S
Zn1193     O1198   2.038   1_554  S
Zn1194     O1197   1.936       .  S
Zn1194     O1199   1.996       .  S
Zn1194     O1201   1.998       .  S
Zn1194     O1205   2.015       .  S
Zn1195     O1197   1.953       .  S
Zn1195     O1203   2.016       .  S
Zn1196     O1204   1.997       .  S
Zn1196     O1207   2.024       .  S
Zn1196     O1208   2.004       .  S
O1198      C1210   1.275       .  A
O1199      C1211   1.270       .  A
O1200      C1212   1.274       .  A
O1201      C1210   1.273       .  A
O1202      C1212   1.275       .  A
O1203      C1211   1.274       .  A
O1204      C1213   1.273       .  A
O1205      C1214   1.273   1_655  A
O1206      C1213   1.272       .  A
C1210      C1389   1.479       .  S
C1211      C1406   1.465       .  S
C1212      C1393   1.481       .  S
C1213      C1377   1.467   1_556  S
C1216      N1217   1.353       .  A
C1216      N1221   1.358       .  A
C1216      C1373   1.473       .  S
N1217      C1218   1.357       .  A
C1218      N1219   1.359       .  A
C1218      C1370   1.474       .  S
N1219      C1220   1.362       .  A
C1220      N1221   1.359       .  A
C1220      C1390   1.475       .  S
Zn1222     O1226   1.955       .  S
Zn1222     O1227   2.011       .  S
Zn1222     O1703   2.016       .  S
Zn1222     O1238   2.021       .  S
Zn1223     O1226   1.964       .  S
Zn1223     O1230   2.008       .  S
Zn1224     O1698   1.953   1_545  S
Zn1224     O1229   2.017       .  S
Zn1224     O1235   2.024   1_556  S
Zn1225     O1226   1.952       .  S
Zn1225     O1233   2.030       .  S
Zn1225     O1236   2.029       .  S
Zn1225     O1237   2.031       .  S
O1226     Zn1696   1.949       .  S
O1227      C1239   1.273       .  A
O1228      C1240   1.267       .  A
O1229      C1241   1.272       .  A
O1230      C1239   1.271       .  A
O1231     Zn1694   2.002   1_545  S
O1231      C1241   1.270       .  A
O1232      C1712   1.269       .  A
O1233      C1242   1.276       .  A
O1235      C1714   1.273       .  A
O1236      C1243   1.276   1_556  A
O1237      C1244   1.275       .  A
O1238      C1244   1.275       .  A
C1239      C1410   1.472       .  S
C1240      C1357   1.458       .  S
C1240      O1704   1.273       .  A
C1241      C1369   1.467       .  S
C1242      C1837   1.479   1_556  S
C1242      O1707   1.274       .  A
C1244      C1361   1.475       .  S
C1245      N1246   1.357       .  A
C1245      N1250   1.353       .  A
C1245      C1350   1.470       .  S
N1246      C1247   1.356       .  A
C1247      N1248   1.368       .  A
C1247      C1386   1.484       .  S
N1248      C1249   1.365       .  A
C1249      N1250   1.356       .  A
C1249      C1366   1.478       .  S
C1251      N1252   1.358       .  A
C1251      N1256   1.357       .  A
C1251      C1341   1.471       .  S
N1252      C1253   1.360       .  A
C1253      N1254   1.359       .  A
C1253      C1362   1.476       .  S
N1254      C1255   1.361       .  A
C1255      N1256   1.354       .  A
C1255      C1345   1.474       .  S
Zn1257     O1262   2.030       .  S
Zn1257     O1266   2.017       .  S
Zn1257     O1745   2.053       .  S
Zn1258     O1261   1.936       .  S
Zn1258     O1263   2.016       .  S
Zn1258     O1265   1.998       .  S
Zn1258     O1269   1.986       .  S
Zn1259     O1261   1.959       .  S
Zn1259     O1267   2.035       .  S
Zn1259     O1270   2.023       .  S
Zn1260     O1261   1.954       .  S
Zn1260     O1268   1.994       .  S
Zn1260     O1743   1.997       .  S
Zn1260     O1744   2.009       .  S
O1263      C1275   1.271       .  A
O1264      C1276   1.274       .  A
O1265      C1274   1.270       .  A
O1266      C1276   1.276       .  A
O1267      C1275   1.274       .  A
O1268      C1277   1.270       .  A
O1269      C1278   1.272       .  A
O1270      C1277   1.275       .  A
O1271     Zn1732   2.047   1_545  S
O1271      C1750   1.274       .  A
O1272     Zn1732   2.033   1_545  S
O1272      C1279   1.275       .  A
O1273     Zn1729   2.005   1_545  S
C1275      C1398   1.477       .  S
C1276      C1342   1.467       .  S
C1277      C1414   1.470       .  S
C1278      C1809   1.465       .  S
C1278      O1743   1.269       .  A
C1279      C1333   1.479   1_655  S
C1280      N1281   1.349       .  A
C1280      N1285   1.356       .  A
C1280      C1358   1.468       .  S
N1281      C1282   1.353       .  A
C1282      N1283   1.364       .  A
C1282      C1338   1.472       .  S
N1283      C1284   1.367       .  A
C1284      N1285   1.357       .  A
C1284      C1329   1.475       .  S
C1286      N1287   1.359       .  A
C1286      N1291   1.363       .  A
C1286      C1326   1.485       .  S
N1287      C1288   1.361       .  A
C1288      N1289   1.359       .  A
C1288      C1382   1.480       .  S
N1289      C1290   1.360       .  A
C1290      N1291   1.363       .  A
C1290      C1334   1.484       .  S
C1292      N1293   1.350       .  A
C1292      N1297   1.364       .  A
C1292      C1353   1.476       .  S
N1293      C1294   1.353       .  A
C1294      N1295   1.360       .  A
C1294      C1378   1.474       .  S
N1295      C1296   1.364       .  A
C1296      N1297   1.365       .  A
C1296      C1321   1.484       .  S
Zn1298     O1302   1.964       .  S
Zn1298     O1303   2.051       .  S
Zn1298     O1307   2.032       .  S
Zn1298     O1314   2.028       .  S
Zn1299     O1302   1.952       .  S
Zn1299     O1304   2.002       .  S
Zn1299     O1306   2.029       .  S
Zn1299     O1310   2.012       .  S
Zn1300     O1302   1.974       .  S
Zn1300     O1305   2.050       .  S
Zn1300     O1308   2.047       .  S
Zn1300     O1311   2.033       .  S
Zn1301     O1302   1.965       .  S
Zn1301     O1309   2.014       .  S
Zn1301     O1312   2.016       .  S
Zn1301     O1313   2.006       .  S
O1303      C1315   1.277       .  A
O1304      C1316   1.271       .  A
O1305      C1317   1.278       .  A
O1306      C1315   1.273       .  A
O1307      C1317   1.275       .  A
O1308      C1316   1.279       .  A
O1309      C1318   1.272       .  A
O1310      C1319   1.274       .  A
O1311      C1318   1.275       .  A
O1312      C1319   1.271       .  A
O1313      C1320   1.271       .  A
O1314      C1320   1.276       .  A
C1315      C1325   1.484       .  S
C1316      C1330   1.477       .  S
C1317      C1322   1.481       .  S
C1318      C1401   1.479       .  S
C1319      C1374   1.475       .  S
C1320      C1346   1.475       .  S
C1321      C1322   1.347       .  D
C1321      H1323   1.087       .  S
C1322      H1324   1.087       .  S
C1325      C1326   1.345       .  D
C1325      H1327   1.087       .  S
C1326      H1328   1.087       .  S
C1329      C1330   1.338       .  D
C1329      H1331   1.087       .  S
C1330      H1332   1.087       .  S
C1333      H1335   1.087   1_455  S
C1334      H1336   1.086       .  S
C1337      C1750   1.482       .  S
C1337      C1338   1.343       .  D
C1337      H1339   1.086       .  S
C1338      H1812   1.088   1_545  S
H1340      C1810   1.087       .  S
C1341      C1342   1.342       .  D
C1341      H1343   1.087       .  S
C1342      H1344   1.086       .  S
C1345      C1346   1.341       .  D
C1345      H1347   1.087       .  S
C1346      H1348   1.087       .  S
C1349      C1822   1.337       .  D
C1350      C1821   1.337       .  D
C1350      H1352   1.087       .  S
C1353      C1354   1.337       .  D
C1354      H1356   1.087       .  S
C1357      C1830   1.338       .  D
C1357      H1359   1.087       .  S
C1358      C1829   1.339       .  D
C1358      H1360   1.087   1_545  S
C1361      C1362   1.345       .  D
C1361      H1363   1.087       .  S
C1362      H1364   1.087       .  S
C1365      C1714   1.479       .  S
C1365      H1367   1.087       .  S
C1366      H1840   1.088   1_545  S
H1368      C1838   1.087       .  S
C1369      C1370   1.344       .  D
C1369      H1371   1.087       .  S
C1370      H1372   1.087       .  S
C1373      C1374   1.342       .  D
C1373      H1375   1.087       .  S
C1374      H1376   1.086       .  S
C1381      C1382   1.345       .  D
C1381      H1383   1.087       .  S
C1389      C1390   1.346       .  D
C1389      H1391   1.086       .  S
C1390      H1392   1.087       .  S
C1393      C1394   1.347       .  D
C1393      H1395   1.086       .  S
C1394      H1396   1.087       .  S
C1397      C1398   1.344       .  D
C1397      H1399   1.087       .  S
C1398      H1400   1.087       .  S
C1401      C1402   1.346       .  D
C1401      H1403   1.086       .  S
C1402      H1404   1.086       .  S
C1405      C1406   1.339       .  D
C1405      H1407   1.087       .  S
C1406      H1408   1.087       .  S
C1409      C1410   1.343       .  D
C1409      H1411   1.087       .  S
C1410      H1412   1.086       .  S
C1413      C1414   1.340       .  D
C1413      H1415   1.086       .  S
C1414      H1416   1.087       .  S
C1417      N1418   1.356       .  A
C1417      N1422   1.367       .  A
C1417      C1641   1.476       .  S
N1418      C1419   1.355       .  A
C1419      N1420   1.350       .  A
C1419      C1649   1.470       .  S
N1420      C1421   1.354       .  A
C1421      N1422   1.365       .  A
C1421      C1645   1.473       .  S
C1423      N1424   1.360       .  A
C1423      N1428   1.366       .  A
C1423      C1630   1.489       .  S
N1424      C1425   1.362       .  A
C1425      N1426   1.353       .  A
C1425      C1638   1.479       .  S
N1426      C1427   1.355       .  A
C1427      N1428   1.362       .  A
C1427      C1633   1.472       .  S
Zn1429     O1433   1.978       .  S
Zn1429     O1434   2.029       .  S
Zn1429     O1674   2.054       .  S
Zn1429     O1681   2.056       .  S
Zn1430     O1433   1.970       .  S
Zn1430     O1435   2.052       .  S
Zn1430     O1437   2.009       .  S
Zn1430     O1441   2.043       .  S
Zn1431     O1433   1.948       .  S
Zn1431     O1672   1.986       .  S
Zn1431     O1439   1.993       .  S
Zn1432     O1440   2.019       .  S
Zn1432     O1443   2.024       .  S
Zn1432     O1444   2.021       .  S
O1434      C1446   1.275       .  A
O1435      C1447   1.278       .  A
O1436     Zn1667   1.999   1_554  S
O1436      C1448   1.271       .  A
O1437      C1446   1.274       .  A
O1438     Zn1665   2.081       .  S
O1438      C1448   1.281       .  A
O1439      C1447   1.268       .  A
O1440      C1449   1.274       .  A
O1441      C1450   1.276   1_655  A
O1442      C1449   1.272       .  A
O1445     Zn1665   2.065       .  S
O1445      C1687   1.280   1_655  A
C1446      C1625   1.476       .  S
C1447      C1642   1.477       .  S
C1448      C1629   1.484       .  S
C1449      C1613   1.470       .  S
C1451      C1857   1.484       .  S
C1451      O1681   1.279   1_455  A
C1452      N1453   1.356       .  A
C1452      N1457   1.358       .  A
C1452      C1609   1.471       .  S
N1453      C1454   1.357       .  A
C1454      N1455   1.357       .  A
C1454      C1606   1.473       .  S
N1455      C1456   1.360       .  A
C1456      N1457   1.358       .  A
C1456      C1626   1.474       .  S
Zn1458     O1462   1.940       .  S
Zn1458     O1463   1.993       .  S
Zn1458     O1474   1.988       .  S
Zn1459     O1462   1.969       .  S
Zn1459     O1700   2.012       .  S
Zn1459     O1466   2.043       .  S
Zn1459     O1706   2.006       .  S
Zn1460     O1465   2.022       .  S
Zn1460     O1704   2.009       .  S
Zn1460     O1471   2.013       .  S
Zn1461     O1462   1.961       .  S
Zn1461     O1469   2.045       .  S
Zn1461     O1472   2.022       .  S
Zn1461     O1473   2.042       .  S
O1463      C1475   1.272       .  A
O1464     Zn1695   2.023   1_554  S
O1464      C1476   1.273       .  A
O1465      C1477   1.273       .  A
O1466      C1475   1.273       .  A
O1467      C1477   1.270       .  A
O1468     Zn1696   1.987   1_554  S
O1469      C1478   1.278   1_565  A
O1470     Zn1695   2.027   1_554  S
O1470      C1715   1.274       .  A
O1472      C1479   1.275       .  A
O1473      C1480   1.278       .  A
O1474      C1480   1.269       .  A
C1475      C1646   1.481       .  S
C1476      C1593   1.476   1_565  S
C1477      C1605   1.470       .  S
C1479      C1826   1.474       .  S
C1479      O1706   1.271       .  A
C1480      C1597   1.472       .  S
C1481      N1482   1.359       .  A
C1481      N1486   1.354       .  A
C1481      C1586   1.470       .  S
N1482      C1483   1.358       .  A
C1483      N1484   1.366       .  A
C1483      C1622   1.483       .  S
N1484      C1485   1.362       .  A
C1485      N1486   1.355       .  A
C1485      C1602   1.476       .  S
C1487      N1488   1.355       .  A
C1487      N1492   1.350       .  A
C1487      C1577   1.465       .  S
N1488      C1489   1.354       .  A
C1489      N1490   1.365       .  A
C1489      C1598   1.471       .  S
N1490      C1491   1.361       .  A
C1491      N1492   1.359       .  A
C1491      C1581   1.482       .  S
Zn1493     O1498   1.999       .  S
Zn1493     O1502   1.980       .  S
Zn1494     O1497   1.952       .  S
Zn1494     O1499   2.029       .  S
Zn1494     O1501   1.991       .  S
Zn1494     O1505   2.002       .  S
Zn1495     O1497   1.954       .  S
Zn1495     O1503   2.019       .  S
Zn1495     O1506   1.994       .  S
Zn1496     O1497   1.969       .  S
Zn1496     O1504   2.021       .  S
O1499      C1511   1.272       .  A
O1500      C1512   1.275       .  A
O1501      C1510   1.270   1_655  A
O1502      C1512   1.268       .  A
O1503      C1511   1.273       .  A
O1504      C1513   1.277       .  A
O1505      C1514   1.273   1_565  A
O1506      C1513   1.271       .  A
O1508      C1515   1.277       .  A
C1511      C1634   1.481       .  S
C1512      C1578   1.464       .  S
C1513      C1650   1.469       .  S
C1515      C1569   1.485   1_655  S
C1516      N1517   1.356       .  A
C1516      N1521   1.353       .  A
C1516      C1594   1.476       .  S
N1517      C1518   1.362       .  A
C1518      N1519   1.363       .  A
C1518      C1574   1.475       .  S
N1519      C1520   1.362       .  A
C1520      N1521   1.349       .  A
C1520      C1565   1.464       .  S
C1522      N1523   1.358       .  A
C1522      N1527   1.358       .  A
C1522      C1562   1.474       .  S
N1523      C1524   1.361       .  A
C1524      N1525   1.358       .  A
C1524      C1618   1.471       .  S
N1525      C1526   1.357       .  A
C1526      N1527   1.356       .  A
C1526      C1570   1.472       .  S
C1528      N1529   1.354       .  A
C1528      N1533   1.364       .  A
C1528      C1589   1.477       .  S
N1529      C1530   1.354       .  A
C1530      N1531   1.355       .  A
C1530      C1614   1.471       .  S
N1531      C1532   1.360       .  A
C1532      N1533   1.365       .  A
C1532      C1557   1.481       .  S
Zn1534     O1538   1.942       .  S
Zn1534     O1539   2.022       .  S
Zn1534     O1543   2.017       .  S
Zn1534     O1550   1.975       .  S
Zn1535     O1538   1.945       .  S
Zn1535     O1540   1.986       .  S
Zn1535     O1542   2.014       .  S
Zn1535     O1546   1.986       .  S
Zn1536     O1538   1.952       .  S
Zn1536     O1541   2.033       .  S
Zn1536     O1544   2.027       .  S
Zn1536     O1547   1.981       .  S
Zn1537     O1538   1.985       .  S
Zn1537     O1545   2.054       .  S
Zn1537     O1548   2.034       .  S
Zn1537     O1549   2.052       .  S
O1539      C1551   1.273       .  A
O1540      C1552   1.268       .  A
O1541      C1553   1.274       .  A
O1542      C1551   1.271       .  A
O1543      C1553   1.272       .  A
O1544      C1552   1.277       .  A
O1545      C1554   1.279       .  A
O1546      C1555   1.271       .  A
O1547      C1554   1.268       .  A
O1548      C1555   1.274       .  A
O1549      C1556   1.277       .  A
O1550      C1556   1.269       .  A
C1551      C1561   1.471       .  S
C1552      C1566   1.471       .  S
C1553      C1558   1.473       .  S
C1554      C1637   1.474       .  S
C1555      C1610   1.476       .  S
C1556      C1582   1.466       .  S
C1557      C1558   1.348       .  D
C1557      H1559   1.087       .  S
C1558      H1560   1.087       .  S
C1561      C1562   1.343       .  D
C1561      H1563   1.087       .  S
C1562      H1564   1.087       .  S
C1565      C1566   1.334       .  D
C1565      H1567   1.087       .  S
C1566      H1568   1.087       .  S
C1569      H1571   1.086   1_455  S
C1570      H1572   1.087       .  S
C1573      C1574   1.350       .  D
C1573      H1575   1.086       .  S
C1577      C1578   1.336       .  D
C1577      H1579   1.086       .  S
C1578      H1580   1.088       .  S
C1581      C1582   1.344       .  D
C1581      H1583   1.086       .  S
C1582      H1584   1.087       .  S
C1586      H1588   1.087       .  S
C1589      C1590   1.342       .  D
C1589      H1827   1.087       .  S
C1590      C1715   1.483       .  S
C1590      H1592   1.086       .  S
H1591      C1825   1.087       .  S
C1593      H1595   1.086   1_545  S
C1594      H1596   1.086       .  S
C1597      C1598   1.336       .  D
C1597      H1599   1.087       .  S
C1598      H1600   1.087       .  S
C1601      C1838   1.339       .  D
C1601      H1603   1.087       .  S
C1602      C1837   1.343       .  D
C1605      C1606   1.343       .  D
C1605      H1607   1.087       .  S
C1606      H1608   1.087       .  S
C1609      C1610   1.346       .  D
C1609      H1611   1.087       .  S
C1610      H1612   1.086       .  S
C1613      C1850   1.342       .  D
C1613      H1851   1.087       .  S
C1614      C1849   1.343   1_554  D
C1614      H1852   1.086       .  S
H1615      C1849   1.086       .  S
H1616      C1850   1.087       .  S
C1617      C1618   1.343       .  D
C1617      H1619   1.087       .  S
C1621      C1687   1.473       .  S
C1625      C1626   1.345       .  D
C1625      H1627   1.086       .  S
C1626      H1628   1.086       .  S
C1629      C1630   1.343       .  D
C1629      H1631   1.087       .  S
C1630      H1632   1.086       .  S
C1633      C1634   1.343       .  D
C1633      H1635   1.086       .  S
C1634      H1636   1.087       .  S
C1637      C1638   1.339       .  D
C1637      H1639   1.087       .  S
C1638      H1640   1.087       .  S
C1641      C1642   1.337       .  D
C1641      H1643   1.087       .  S
C1642      H1644   1.087       .  S
C1645      C1646   1.343       .  D
C1645      H1647   1.088       .  S
C1646      H1648   1.086       .  S
C1649      C1650   1.339       .  D
C1649      H1651   1.087       .  S
C1650      H1652   1.087       .  S
C1653      N1654   1.360       .  A
C1653      N1658   1.354       .  A
C1653      C1877   1.466       .  S
N1654      C1655   1.363       .  A
C1655      N1656   1.358       .  A
C1655      C1885   1.481       .  S
N1656      C1657   1.360       .  A
C1657      N1658   1.352       .  A
C1657      C1881   1.473       .  S
C1659      N1660   1.361       .  A
C1659      N1664   1.358       .  A
C1659      C1866   1.475       .  S
N1660      C1661   1.361       .  A
C1661      N1662   1.359       .  A
C1661      C1874   1.478       .  S
N1662      C1663   1.355       .  A
C1663      N1664   1.357       .  A
C1663      C1869   1.471       .  S
Zn1665     O1669   1.985   1_554  S
Zn1665     O1670   2.058   1_554  S
Zn1666     O1669   1.959       .  S
Zn1666     O1671   2.028       .  S
Zn1666     O1673   2.011       .  S
Zn1666     O1677   2.034       .  S
Zn1667     O1669   1.948       .  S
Zn1667     O1675   1.999       .  S
Zn1668     O1676   2.007       .  S
Zn1668     O1679   2.009       .  S
Zn1668     O1680   1.982       .  S
O1670      C1682   1.278       .  A
O1671      C1683   1.273       .  A
O1672      C1684   1.271       .  A
O1673      C1682   1.276       .  A
O1674      C1684   1.276       .  A
O1675      C1683   1.273       .  A
O1676      C1685   1.271       .  A
O1677      C1686   1.275   1_655  A
O1678      C1685   1.270       .  A
C1682      C1861   1.487       .  S
C1683      C1878   1.474       .  S
C1684      C1865   1.482       .  S
C1685      C1849   1.466       .  S
C1688      N1689   1.348       .  A
C1688      N1693   1.357       .  A
C1688      C1845   1.470       .  S
N1689      C1690   1.354       .  A
C1690      N1691   1.364       .  A
C1690      C1842   1.475       .  S
N1691      C1692   1.366       .  A
C1692      N1693   1.361       .  A
C1692      C1862   1.480       .  S
Zn1694     O1698   1.944       .  S
Zn1694     O1699   1.988       .  S
Zn1694     O1710   1.996       .  S
Zn1695     O1698   1.967       .  S
Zn1695     O1702   2.031       .  S
Zn1696     O1701   2.006       .  S
Zn1696     O1707   2.028       .  S
Zn1697     O1698   1.955       .  S
Zn1697     O1705   2.026       .  S
Zn1697     O1708   2.032   1_556  S
Zn1697     O1709   2.036       .  S
O1699      C1711   1.269       .  A
O1700      C1712   1.275   1_565  A
O1701      C1713   1.271       .  A
O1702      C1711   1.276       .  A
O1703      C1713   1.273       .  A
O1705      C1714   1.277   1_566  A
O1708      C1715   1.278       .  A
O1709      C1716   1.274       .  A
O1710      C1716   1.271       .  A
C1711      C1882   1.471       .  S
C1712      C1829   1.468       .  S
C1713      C1841   1.466       .  S
C1716      C1833   1.474       .  S
C1717      N1718   1.358       .  A
C1717      N1722   1.351       .  A
C1717      C1822   1.469       .  S
N1718      C1719   1.359       .  A
C1719      N1720   1.365       .  A
C1719      C1858   1.480       .  S
N1720      C1721   1.363       .  A
C1721      N1722   1.353       .  A
C1721      C1838   1.470       .  S
C1723      N1724   1.359       .  A
C1723      N1728   1.355       .  A
C1723      C1813   1.473       .  S
N1724      C1725   1.361       .  A
C1725      N1726   1.358       .  A
C1725      C1834   1.468       .  S
N1726      C1727   1.358       .  A
C1727      N1728   1.350       .  A
C1727      C1817   1.467       .  S
Zn1729     O1734   2.039   1_565  S
Zn1729     O1738   2.020       .  S
Zn1730     O1733   1.944       .  S
Zn1730     O1735   2.021       .  S
Zn1730     O1737   2.000       .  S
Zn1730     O1741   1.990       .  S
Zn1731     O1733   1.955       .  S
Zn1731     O1739   2.012       .  S
Zn1731     O1742   2.001       .  S
Zn1732     O1733   1.982       .  S
Zn1732     O1740   2.052       .  S
O1735      C1747   1.272       .  A
O1736      C1748   1.269       .  A
O1737      C1746   1.270   1_565  A
O1738      C1748   1.274       .  A
O1739      C1747   1.272       .  A
O1740      C1749   1.278       .  A
O1741      C1750   1.273   1_565  A
O1742      C1749   1.271       .  A
O1744      C1751   1.271       .  A
C1747      C1870   1.472       .  S
C1748      C1814   1.460       .  S
C1749      C1886   1.478       .  S
C1751      C1805   1.477   1_655  S
C1752      N1753   1.355       .  A
C1752      N1757   1.352       .  A
C1752      C1830   1.465       .  S
N1753      C1754   1.350       .  A
C1754      N1755   1.355       .  A
C1754      C1810   1.461       .  S
N1755      C1756   1.354       .  A
C1756      N1757   1.358       .  A
C1756      C1801   1.458       .  S
C1758      N1759   1.354       .  A
C1758      N1763   1.365       .  A
C1758      C1798   1.479       .  S
N1759      C1760   1.356       .  A
C1760      N1761   1.359       .  A
C1760      C1854   1.480       .  S
N1761      C1762   1.364       .  A
C1762      N1763   1.366       .  A
C1762      C1806   1.492       .  S
C1764      N1765   1.356       .  A
C1764      N1769   1.360       .  A
C1764      C1825   1.475       .  S
N1765      C1766   1.358       .  A
C1766      N1767   1.358       .  A
C1766      C1850   1.472       .  S
N1767      C1768   1.360       .  A
C1768      N1769   1.358       .  A
C1768      C1793   1.474       .  S
Zn1770     O1774   1.952       .  S
Zn1770     O1775   2.043       .  S
Zn1770     O1779   2.025       .  S
Zn1770     O1786   2.016       .  S
Zn1771     O1774   1.945       .  S
Zn1771     O1776   1.983       .  S
Zn1771     O1778   2.024       .  S
Zn1771     O1782   2.016       .  S
Zn1772     O1774   1.957       .  S
Zn1772     O1777   2.016       .  S
Zn1772     O1780   1.994       .  S
Zn1772     O1783   2.017       .  S
Zn1773     O1774   1.960       .  S
Zn1773     O1781   2.018       .  S
Zn1773     O1784   2.008       .  S
Zn1773     O1785   1.999       .  S
O1775      C1787   1.276       .  A
O1776      C1788   1.272       .  A
O1777      C1789   1.273       .  A
O1778      C1787   1.272       .  A
O1779      C1789   1.273       .  A
O1780      C1788   1.270       .  A
O1781      C1790   1.272       .  A
O1782      C1791   1.275       .  A
O1783      C1790   1.273       .  A
O1784      C1791   1.270       .  A
O1785      C1792   1.271       .  A
O1786      C1792   1.277       .  A
C1787      C1797   1.485       .  S
C1788      C1802   1.459       .  S
C1789      C1794   1.474       .  S
C1790      C1873   1.475       .  S
C1791      C1846   1.474       .  S
C1792      C1818   1.469       .  S
C1793      C1794   1.343       .  D
C1793      H1795   1.087       .  S
C1794      H1796   1.087       .  S
C1797      C1798   1.342       .  D
C1797      H1799   1.087       .  S
C1798      H1800   1.087       .  S
C1801      C1802   1.338       .  D
C1801      H1803   1.087       .  S
C1802      H1804   1.087       .  S
C1805      H1807   1.087   1_455  S
C1806      H1808   1.086       .  S
C1809      C1810   1.339       .  D
C1809      H1811   1.086       .  S
C1813      C1814   1.344       .  D
C1813      H1815   1.087       .  S
C1814      H1816   1.086       .  S
C1817      C1818   1.338       .  D
C1817      H1819   1.087       .  S
C1818      H1820   1.087       .  S
C1822      H1824   1.087       .  S
C1825      C1826   1.343       .  D
C1826      H1828   1.087       .  S
C1829      H1831   1.087       .  S
C1830      H1832   1.087       .  S
C1833      C1834   1.343       .  D
C1833      H1835   1.087       .  S
C1834      H1836   1.087       .  S
C1837      H1839   1.086   1_554  S
C1841      C1842   1.348       .  D
C1841      H1843   1.087       .  S
C1842      H1844   1.086       .  S
C1845      C1846   1.340       .  D
C1845      H1847   1.087       .  S
C1846      H1848   1.087       .  S
C1853      C1854   1.346       .  D
C1853      H1855   1.087       .  S
C1861      C1862   1.348       .  D
C1861      H1863   1.086       .  S
C1862      H1864   1.087       .  S
C1865      C1866   1.348       .  D
C1865      H1867   1.086       .  S
C1866      H1868   1.087       .  S
C1869      C1870   1.342       .  D
C1869      H1871   1.087       .  S
C1870      H1872   1.087       .  S
C1873      C1874   1.347       .  D
C1873      H1875   1.086       .  S
C1874      H1876   1.086       .  S
C1877      C1878   1.341       .  D
C1877      H1879   1.087       .  S
C1878      H1880   1.087       .  S
C1881      C1882   1.339       .  D
C1881      H1883   1.087       .  S
C1882      H1884   1.087       .  S
C1885      C1886   1.342       .  D
C1885      H1887   1.086       .  S
C1886      H1888   1.086       .  S
