geometry optimzed in LAMMPS
_audit_creation_date              2020-11-30 
_audit_creation_method            'lammps2cif' 
_symmetry_space_group_name_H-M    'P1' 
_symmetry_Int_Tables_number       1 
_symmetry_cell_setting            triclinic 
loop_ 
_symmetry_equiv_pos_as_xyz 
  x,y,z 
_cell_length_a                    35.50826931 
_cell_length_b                    35.98918980085849 
_cell_length_c                    25.149250832266716 
_cell_angle_alpha                 90.81702321932885 
_cell_angle_beta                  89.62821307118774 
_cell_angle_gamma                 89.30209655667427 
loop_ 
_atom_site_label 
_atom_site_type_symbol 
_atom_site_fract_x 
_atom_site_fract_y 
_atom_site_fract_z 
_atom_site_charge 
O1          O  0.25701262  0.17828760  0.35464102    -0.86500
O2          O  0.25746552  0.18782851  0.65467441    -0.86600
O3          O  0.33192842  0.15971685  0.50507672    -0.88300
O4          O  0.21631976  0.14011995  0.52567650    -0.87100
O5          O  0.16292500  0.17561154  0.52113663    -0.86700
O6          O  0.36849159  0.21127089  0.50369190    -0.88000
O7          O  0.27223487  0.14623754  0.58702022    -0.86500
O8          O  0.26698338  0.14033536  0.42595226    -0.86100
Zr9        Zr  0.26815622  0.17965330  0.50513690     2.84300
O10         O  0.22623033  0.21088815  0.56134553    -1.08100
O11         O  0.29955358  0.22039450  0.44893544    -1.08800
C12         C  0.26104424  0.14510204  0.37601104     1.06600
C13         C  0.26415719  0.15390416  0.63582990     1.06600
C14         C  0.36369773  0.17609562  0.50442595     1.09500
C15         C  0.18062566  0.14494764  0.53023412     1.07300
H16         H  0.31594827  0.21006503  0.57944945     0.32900
O17         O  0.29792066  0.22380396  0.55877843    -1.29000
H18         H  0.21002043  0.18728856  0.42832433     0.32600
O19         O  0.22460704  0.20579216  0.44692340    -1.30700
O20         O  0.25050496  0.32192467  0.65305885    -0.86500
O21         O  0.24751569  0.31175202  0.34928218    -0.88000
O22         O  0.36327151  0.26561623  0.58666551    -0.86600
O23         O  0.15066131  0.23762977  0.58648245    -0.86600
O24         O  0.15016722  0.23891427  0.42169027    -0.86300
O25         O  0.36466455  0.26179582  0.41988187    -0.86100
O26         O  0.29353462  0.36528088  0.48319210    -0.86500
O27         O  0.17913418  0.34219543  0.49905095    -0.86000
O28         O  0.34790002  0.33062356  0.48519581    -0.87000
O29         O  0.14225958  0.29056124  0.50449818    -0.86200
O30         O  0.32119974  0.25485251  0.65501077    -0.86600
O31         O  0.32423529  0.24734015  0.35153028    -0.86300
O32         O  0.19051438  0.24934595  0.35167928    -0.85900
O33         O  0.18881010  0.24920981  0.65717714    -0.86400
O34         O  0.24441756  0.36047251  0.58140567    -0.86700
O35         O  0.23553216  0.35323755  0.41768544    -0.88000
Zr36       Zr  0.25527671  0.25445043  0.61803125     2.83100
Zr37       Zr  0.25655145  0.24662063  0.38832145     2.83500
Zr38       Zr  0.32919109  0.26554738  0.50267564     2.84100
Zr39       Zr  0.18405983  0.23840280  0.50428659     2.83400
Zr40       Zr  0.24381290  0.32269996  0.50086950     2.84200
O41         O  0.21480836  0.27836498  0.44731204    -1.08600
O42         O  0.28678476  0.29649304  0.56006721    -1.08100
C43         C  0.24732396  0.35513369  0.63178813     1.06600
C44         C  0.23971591  0.34544872  0.36799357     1.09200
C45         C  0.35530957  0.25867614  0.63576183     1.06800
C46         C  0.15555468  0.24286612  0.63641317     1.07100
C47         C  0.15685319  0.24572473  0.37241101     1.06700
C48         C  0.35811979  0.25351727  0.37075728     1.06300
C49         C  0.32911805  0.36114517  0.47672513     1.06700
C50         C  0.14750278  0.32557199  0.50196285     1.06200
H51         H  0.29886690  0.30791358  0.42070181     0.32900
O52         O  0.28607121  0.29107782  0.44407981    -1.29700
H53         H  0.19444929  0.29723407  0.57916601     0.32900
O54         O  0.21285453  0.28305206  0.55875136    -1.31000
N55         N  0.97808323  0.44737254  0.45027741    -0.36600
N56         N  0.03113502  0.98686045  0.52295830    -0.57200
N57         N  0.52701989  0.04822260  0.46964180    -0.36600
N58         N  0.43286882  0.02191756  0.40427911    -0.57200
C59         C  0.99148478  0.42176210  0.48440166     0.27000
C60         C  0.45072622  0.43197620  0.38378123     0.27000
C61         C  0.05763556  0.05759020  0.48079210     0.27000
C62         C  0.50796923  0.07777135  0.45126203     0.27000
C63         C  0.03410279  0.45747232  0.54208345     0.35600
C64         C  0.06001417  0.00560068  0.54401529     0.35600
C65         C  0.43156562  0.49349287  0.35407518     0.35600
C66         C  0.46356214  0.04321690  0.39630176     0.35600
C67         C  0.97185965  0.38907114  0.47993968    -0.21900
C68         C  0.44366565  0.39539553  0.39763622    -0.21900
C69         C  0.05965630  0.09583082  0.47734859    -0.21900
C70         C  0.52278785  0.11002705  0.47333364    -0.21900
C71         C  0.06162044  0.46067622  0.58103528    -0.22900
C72         C  0.07576490  0.98639967  0.58561074    -0.22900
C73         C  0.46300294  0.50060439  0.32299639    -0.22900
C74         C  0.48974150  0.02486321  0.36436323    -0.22900
C75         C  0.02389473  0.42487841  0.51487856    -0.18300
C76         C  0.42226763  0.45781287  0.37122604    -0.18300
C77         C  0.47230535  0.07434949  0.42798951    -0.18300
C78         C  0.07514624  0.03742433  0.52167625    -0.18300
H79         H  0.97687540  0.36354443  0.50119981     0.14600
H80         H  0.41872975  0.37933267  0.39015571     0.14600
H81         H  0.07768793  0.11456647  0.49893809     0.14600
H82         H  0.51312969  0.13821257  0.47021359     0.14600
H83         H  0.07713607  0.43931142  0.60132655     0.12900
H84         H  0.10001536  0.99393426  0.60911758     0.12900
H85         H  0.47948722  0.48054171  0.29997503     0.12900
H86         H  0.51780442  0.03401743  0.35430365     0.12900
H87         H  0.49647956  0.46816733  0.40073992     0.26200
H88         H  0.52238099  0.02063253  0.45950921     0.26200
O89         O  0.49738508  0.42672113  0.84763660    -0.86500
O90         O  0.49862308  0.42245640  0.14947667    -0.86600
O91         O  0.06440025  0.40454244  0.97881301    -0.88300
O92         O  0.44600187  0.38615519  0.98192963    -0.87100
O93         O  0.39623172  0.42641757  0.98498713    -0.86700
O94         O  0.10523556  0.45313064  0.98287590    -0.88000
O95         O  0.50728675  0.38319220  0.07733620    -0.86500
O96         O  0.50109916  0.38705411  0.91773045    -0.86100
Zr97       Zr  0.50302051  0.42137666  0.99825858     2.84300
O98         O  0.46103895  0.45187575  0.05654274    -1.08100
O99         O  0.03311418  0.46876438  0.94625232    -1.08800
C100        C  0.49905621  0.39279465  0.86785032     1.06600
C101        C  0.50351158  0.38897903  0.12786396     1.06600
C102        C  0.09717916  0.41912903  0.97259657     1.09500
C103        C  0.41090225  0.39437481  0.97511291     1.07300
H104        H  0.05310247  0.44951871  0.07688187     0.32900
O105        O  0.03531662  0.46504528  0.05821269    -1.29000
H106        H  0.44828505  0.44029820  0.92054472     0.32600
O107        O  0.46266087  0.45603139  0.94393104    -1.30700
O108        O  0.49802193  0.05831048  0.15672682    -0.86500
O109        O  0.49788850  0.06096371  0.85173314    -0.88000
O110        O  0.10287499  0.50525092  0.08453871    -0.86600
O111        O  0.38542096  0.47838615  0.08266966    -0.86600
O112        O  0.39224191  0.00050390  0.91771398    -0.86300
O113        O  0.11120681  0.01296264  0.92575423    -0.86100
O114        O  0.05125537  0.11467551  0.01441184    -0.86500
O115        O  0.43474591  0.09606330  0.99943132    -0.86000
O116        O  0.09968400  0.07327246  0.01789858    -0.87000
O117        O  0.39157172  0.05169336  0.01366784    -0.86200
O118        O  0.06158936  0.49778729  0.15444771    -0.86600
O119        O  0.07090614  0.00676529  0.85482567    -0.86300
O120        O  0.43483041  0.99724560  0.84821527    -0.85900
O121        O  0.42622822  0.48776087  0.15207806    -0.86400
O122        O  0.49072027  0.09968785  0.08840433    -0.86700
O123        O  0.49139791  0.10194068  0.92244361    -0.88000
Zr124      Zr  0.49479121  0.49031785  0.11662957     2.83100
Zr125      Zr  0.50158359  0.99413836  0.88630515     2.83500
Zr126      Zr  0.06720712  0.50724767  0.00333737     2.84100
Zr127      Zr  0.42093794  0.48713591  0.00213280     2.83400
Zr128      Zr  0.49366618  0.06597942  0.00349138     2.84200
O129        O  0.46056787  0.02899978  0.94414536    -1.08600
O130        O  0.03324838  0.04270471  0.06380326    -1.08100
C131        C  0.49452968  0.09223248  0.13816553     1.06600
C132        C  0.49370536  0.09476535  0.87218564     1.09200
C133        C  0.09565892  0.50111146  0.13430063     1.06800
C134        C  0.39205562  0.48290904  0.13253248     1.07100
C135        C  0.40036891  0.00036514  0.86777414     1.06700
C136        C  0.10480382  0.00969452  0.87558562     1.06300
C137        C  0.08598207  0.10659845  0.01982208     1.06700
C138        C  0.40155647  0.08592724  0.01110413     1.06200
H139        H  0.05212081  0.06230391  0.92959828     0.32900
O140        O  0.03663864  0.04537483  0.94938384    -1.29700
H141        H  0.44227804  0.04366299  0.08210002     0.32900
O142        O  0.45905756  0.02856008  0.06012741    -1.31000
N143        N  0.25211288  0.26530431  0.94499610    -0.36600
N144        N  0.31846223  0.23357345  0.00926183    -0.57200
N145        N  0.25149824  0.23072405  0.12095672    -0.36600
N146        N  0.19189080  0.24986028  0.01768169    -0.57200
C147        C  0.28238969  0.27065847  0.91362570     0.27000
C148        C  0.22276631  0.28293990  0.92244139     0.27000
C149        C  0.28101730  0.20785788  0.13012002     0.27000
C150        C  0.22015321  0.21119588  0.13011567     0.27000
C151        C  0.32372092  0.26757946  0.98954597     0.35600
C152        C  0.31697519  0.23851896  0.06249816     0.35600
C153        C  0.18340600  0.28466492  0.00315527     0.35600
C154        C  0.18494685  0.24905131  0.07014854     0.35600
C155        C  0.27077421  0.28553921  0.86573181    -0.21900
C156        C  0.23297537  0.29416963  0.87193966    -0.21900
C157        C  0.26844509  0.17741762  0.15830373    -0.21900
C158        C  0.22937647  0.17950247  0.15769401    -0.21900
C159        C  0.32570252  0.29404121  0.03031334    -0.22900
C160        C  0.32057905  0.27543095  0.07702022    -0.22900
C161        C  0.16732895  0.30450994  0.04567872    -0.22900
C162        C  0.16973802  0.28195744  0.08902604    -0.22900
C163        C  0.31829081  0.27608809  0.93584150    -0.18300
C164        C  0.19362331  0.29912981  0.95352323    -0.18300
C165        C  0.18789497  0.21667932  0.09884422    -0.18300
C166        C  0.31360233  0.20890235  0.09733397    -0.18300
H167        H  0.28871612  0.29550380  0.83415629     0.14600
H168        H  0.21646734  0.31134816  0.84572296     0.14600
H169        H  0.28488536  0.15336055  0.16984106     0.14600
H170        H  0.21028606  0.15776773  0.16869797     0.14600
H171        H  0.32776959  0.32384917  0.02663054     0.12900
H172        H  0.32003216  0.28726411  0.11683246     0.12900
H173        H  0.15661871  0.33271651  0.04659724     0.12900
H174        H  0.16058488  0.28842211  0.12918205     0.12900
H175        H  0.25368932  0.25883933  0.98513398     0.26200
H176        H  0.25225397  0.25453846  0.09781157     0.26200
C177        C  0.50906518  0.24237742  0.25022024    -0.02500
C178        C  0.24960296  0.99502923  0.25681880    -0.02500
C179        C  0.00247316  0.25402922  0.74875353    -0.02500
C180        C  0.24538887  0.50443878  0.75194641    -0.02500
C181        C  0.16603190  0.02659065  0.15975422    -0.05800
C182        C  0.13072733  0.49996406  0.16843104     0.00200
C183        C  0.14063227  0.46956542  0.20028328    -0.08400
C184        C  0.17703767  0.46785885  0.22344006    -0.05800
C185        C  0.20493321  0.49640734  0.21970377     0.00100
C186        C  0.20253630  0.02529827  0.18291685    -0.08300
C187        C  0.22826860  0.05589884  0.16380150     0.62000
H188        H  0.15995490  0.04811280  0.13113980     0.12700
H189        H  0.18313913  0.44290992  0.24459602     0.12800
C190        C  0.11321232  0.43798460  0.20812101     0.62300
F191        F  0.23551580  0.05018233  0.11027282    -0.22900
F192        F  0.26203699  0.05860599  0.18944291    -0.20200
F193        F  0.20995533  0.08969295  0.17064942    -0.19900
F194        F  0.10398831  0.42241358  0.15937568    -0.19900
F195        F  0.08086121  0.45134879  0.23301436    -0.20300
F196        F  0.12815504  0.41019296  0.23928348    -0.22900
C197        C  0.32413171  0.46424380  0.14908969    -0.05800
C198        C  0.35574277  0.48449537  0.16655915     0.00200
C199        C  0.35530458  0.01203997  0.20787358    -0.08400
C200        C  0.31897432  0.01588196  0.23127792    -0.05800
C201        C  0.28015018  0.49352091  0.21614869     0.00100
C202        C  0.28657574  0.46967456  0.16962433    -0.08300
C203        C  0.25509669  0.45072480  0.13835504     0.62000
H204        H  0.32899084  0.44495716  0.11632983     0.12700
H205        H  0.31576355  0.03898288  0.25767498     0.12800
C206        C  0.38676063  0.03763096  0.22505079     0.62300
F207        F  0.23255150  0.47724965  0.11500035    -0.22900
F208        F  0.23995732  0.92802035  0.17667673    -0.20200
F209        F  0.26912884  0.42823855  0.09754950    -0.19900
F210        F  0.39997856  0.05635141  0.18125635    -0.19900
F211        F  0.40881830  0.52164814  0.24078497    -0.20300
F212        F  0.36586243  0.56653057  0.25619602    -0.22900
C213        C  0.53523075  0.32807551  0.15395289    -0.05800
C214        C  0.50454452  0.35296473  0.16074307     0.00200
C215        C  0.96753131  0.34083341  0.18257298    -0.08400
C216        C  0.97190296  0.30508730  0.20721702    -0.05800
C217        C  0.50643352  0.27750412  0.20818753     0.00100
C218        C  0.53545730  0.29035254  0.17216053    -0.08300
C219        C  0.56539981  0.26540063  0.14669200     0.62000
H220        H  0.55879430  0.33768477  0.13046150     0.12700
H221        H  0.94670821  0.29154436  0.22060994     0.12800
C222        C  0.92835326  0.35603934  0.17192754     0.62300
F223        F  0.57379454  0.27737304  0.09591464    -0.22900
F224        F  0.55324770  0.22952749  0.14094659    -0.20200
F225        F  0.06338074  0.24552354  0.15148528    -0.19900
F226        F  0.42481574  0.36810991  0.13493073    -0.19900
F227        F  0.92475797  0.39182956  0.19208848    -0.20300
F228        F  0.90066797  0.33455220  0.19476680    -0.22900
C229        C  0.04157583  0.14838976  0.19093846    -0.05800
C230        C  0.49718430  0.12683906  0.17393889     0.00200
C231        C  0.46885976  0.15467309  0.17557726    -0.08400
C232        C  0.47756874  0.19236940  0.18914256    -0.05800
C233        C  0.51073592  0.20247776  0.21721698     0.00100
C234        C  0.04727764  0.18493393  0.21210955    -0.08300
C235        C  0.08932375  0.19021460  0.22293927     0.62000
H236        H  0.06534324  0.12971625  0.18362234     0.12700
H237        H  0.45535327  0.21310556  0.18662096     0.12800
C238        C  0.42855054  0.14195738  0.17637776     0.62300
F239        F  0.11042502  0.17756927  0.17988566    -0.22900
F240        F  0.09967625  0.16884415  0.26580430    -0.20200
F241        F  0.10028865  0.22588933  0.23124412    -0.19900
F242        F  0.42440267  0.11819665  0.21848900    -0.19900
F243        F  0.42005060  0.12295725  0.13024543    -0.20300
F244        F  0.40323352  0.17099543  0.18386788    -0.22900
C245        C  0.16320397  0.39740277  0.97580185    -0.05800
C246        C  0.12784604  0.39501611  0.95199199     0.00200
C247        C  0.12190717  0.36743740  0.91234642    -0.08400
C248        C  0.14685929  0.33726003  0.90900229    -0.05800
C249        C  0.17894293  0.33621325  0.94055791     0.00100
C250        C  0.18954570  0.36837770  0.97002343    -0.08300
C251        C  0.22601307  0.37211086  0.00052663     0.62000
H252        H  0.16909808  0.42035827  0.00276900     0.12700
H253        H  0.14006674  0.31346345  0.88407077     0.12800
C254        C  0.09012465  0.36877377  0.87303734     0.62300
F255        F  0.24554566  0.40191476  0.98093979    -0.22900
F256        F  0.24895703  0.34095954  0.99669066    -0.20200
F257        F  0.21804701  0.37896878  0.05367678    -0.19900
F258        F  0.07259848  0.40319634  0.87297485    -0.19900
F259        F  0.06438431  0.34163854  0.88516251    -0.20300
F260        F  0.10417292  0.36215929  0.82228682    -0.22900
C261        C  0.40283686  0.33058180  0.93897359    -0.05800
C262        C  0.38648995  0.36560786  0.95098946     0.00200
C263        C  0.34854048  0.37258264  0.93466638    -0.08400
C264        C  0.32666797  0.34228813  0.91939759    -0.05800
C265        C  0.34206585  0.30641798  0.91660176     0.00100
C266        C  0.38120625  0.30161825  0.91869800    -0.08300
C267        C  0.40008947  0.26574328  0.90129891     0.62000
H268        H  0.43261169  0.32547656  0.94517332     0.12700
H269        H  0.29651982  0.34592776  0.91587094     0.12800
C270        C  0.33031012  0.41091000  0.93266856     0.62300
F271        F  0.42882214  0.27376833  0.86651200    -0.22900
F272        F  0.37531131  0.24249308  0.87523490    -0.20200
F273        F  0.41482936  0.24765523  0.94457509    -0.19900
F274        F  0.35296783  0.43406057  0.90403302    -0.19900
F275        F  0.32447125  0.42521736  0.98343945    -0.20300
F276        F  0.29604379  0.41021298  0.90694298    -0.22900
C277        C  0.39262377  0.15160875  0.03740861    -0.05800
C278        C  0.37585718  0.11669771  0.02823348     0.00200
C279        C  0.33778050  0.11193545  0.04269341    -0.08400
C280        C  0.31881532  0.14183790  0.06812461    -0.05800
C281        C  0.33656861  0.17545393  0.08141746     0.00100
C282        C  0.37488965  0.17974150  0.06712389    -0.08300
C283        C  0.39791538  0.21380506  0.08227240     0.62000
H284        H  0.42139787  0.15635554  0.02505299     0.12700
H285        H  0.28978696  0.13916680  0.07686743     0.12800
C286        C  0.31683352  0.07634375  0.02968382     0.62300
F287        F  0.43552294  0.20435181  0.08790905    -0.22900
F288        F  0.38553231  0.22956498  0.12985020    -0.20200
F289        F  0.39561058  0.24004081  0.04308100    -0.19900
F290        F  0.32889446  0.04802238  0.06230487    -0.19900
F291        F  0.32282073  0.06630157  0.97700059    -0.20300
F292        F  0.27855336  0.08046792  0.03683899    -0.22900
C293        C  0.15035081  0.12916710  0.03086926    -0.05800
C294        C  0.11180245  0.13727989  0.03214172     0.00200
C295        C  0.09958711  0.17332282  0.04920235    -0.08400
C296        C  0.12537913  0.19585213  0.07538158    -0.05800
C297        C  0.16369803  0.18658794  0.07794509     0.00100
C298        C  0.17670681  0.15468927  0.04907402    -0.08300
C299        C  0.21729696  0.14506117  0.03850082     0.62000
H300        H  0.16016435  0.10268021  0.01465224     0.12700
H301        H  0.11592074  0.22208766  0.09259511     0.12800
C302        C  0.06089210  0.18971105  0.03823559     0.62300
F303        F  0.22152028  0.12427027  0.99196525    -0.22900
F304        F  0.22918416  0.12376014  0.08021031    -0.20200
F305        F  0.23897336  0.17637515  0.03292082    -0.19900
F306        F  0.03494291  0.17669600  0.07426455    -0.19900
F307        F  0.05011331  0.18060475  0.98719242    -0.20300
F308        F  0.06091719  0.22817280  0.04182700    -0.22900
C309        C  0.33807468  0.03069759  0.84683227    -0.05800
C310        C  0.36554280  0.00341302  0.83304663     0.00200
C311        C  0.35000139  0.47704586  0.79577077    -0.08400
C312        C  0.31264900  0.47586893  0.77540929    -0.05800
C313        C  0.28996062  0.00387610  0.78652261     0.00100
C314        C  0.30070102  0.03157497  0.82590444    -0.08300
C315        C  0.27387355  0.06190076  0.84855754     0.62000
H316        H  0.34610459  0.05107301  0.87656611     0.12700
H317        H  0.30705466  0.45325268  0.74862163     0.12800
C318        C  0.38008630  0.45029544  0.77441328     0.62300
F319        F  0.29297449  0.08820648  0.87821864    -0.22900
F320        F  0.23938681  0.54252712  0.88431285    -0.20200
F321        F  0.25530468  0.08125376  0.80977261    -0.19900
F322        F  0.41019541  0.47026951  0.75523223    -0.19900
F323        F  0.36556222  0.91711023  0.74986972    -0.20300
F324        F  0.39245947  0.42729268  0.81441137    -0.22900
C325        C  0.16057249  0.47871655  0.85180937    -0.05800
C326        C  0.14072793  0.00890407  0.84182774     0.00200
C327        C  0.15199572  0.03892666  0.81025749    -0.08400
C328        C  0.18831514  0.03839685  0.78555151    -0.05800
C329        C  0.21571792  0.00911555  0.79064725     0.00100
C330        C  0.19836824  0.47964972  0.83127685    -0.08300
C331        C  0.22669249  0.45316340  0.85702231     0.62000
H332        H  0.15330810  0.45833253  0.88128470     0.12700
H333        H  0.19552996  0.06282448  0.76435435     0.12800
C334        C  0.12674892  0.07314953  0.80685675     0.62300
F335        F  0.24616800  0.47200814  0.89611662    -0.23300
F336        F  0.25213206  0.43770989  0.82153684    -0.20200
F337        F  0.20872647  0.42372424  0.88065113    -0.19900
F338        F  0.12138619  0.08820868  0.85734011    -0.19900
F339        F  0.09223038  0.06356376  0.78597104    -0.20300
F340        F  0.14213410  0.10024425  0.77512912    -0.22900
C341        C  0.02954768  0.16800547  0.84408527    -0.05800
C342        C  0.49405654  0.12929204  0.83730626     0.00200
C343        C  0.46483744  0.15641257  0.83616361    -0.08400
C344        C  0.47079708  0.19166263  0.81157395    -0.05800
C345        C  0.99945154  0.21941523  0.79212918     0.00100
C346        C  0.02808605  0.20640575  0.82831774    -0.08300
C347        C  0.04721987  0.23175543  0.86874694     0.62000
H348        H  0.05286578  0.15887389  0.86850190     0.12700
H349        H  0.44809634  0.21188726  0.81382419     0.12800
C350        C  0.42683062  0.14753807  0.86015941     0.62300
F351        F  0.03139042  0.22577934  0.91804125    -0.22900
F352        F  0.04294514  0.26909624  0.86014393    -0.20200
F353        F  0.08521487  0.22322041  0.87093814    -0.19900
F354        F  0.42911872  0.14864515  0.91493246    -0.19900
F355        F  0.41589186  0.11240711  0.84378205    -0.20300
F356        F  0.39930353  0.17251718  0.84458868    -0.22900
C357        C  0.01683313  0.36323155  0.78624897    -0.05800
C358        C  0.49987144  0.35530733  0.83634200     0.00200
C359        C  0.49783039  0.35046363  0.78070205    -0.08400
C360        C  0.50184326  0.31402583  0.75800415    -0.05800
C361        C  0.00464273  0.29446065  0.77774727     0.00100
C362        C  0.02013909  0.32898279  0.75664580    -0.08300
C363        C  0.03563731  0.33339320  0.70082971     0.62000
H364        H  0.03266423  0.38737668  0.77468667     0.12700
H365        H  0.50091360  0.31169827  0.71543259     0.12800
C366        C  0.48950356  0.38315522  0.74516928     0.62300
F367        F  0.03763238  0.37042413  0.68698290    -0.22900
F368        F  0.01202191  0.31736958  0.66450573    -0.20200
F369        F  0.07137514  0.31848727  0.69674160    -0.19900
F370        F  0.45605611  0.39999314  0.76121176    -0.19900
F371        F  0.48571793  0.37242742  0.69240108    -0.20300
F372        F  0.51832176  0.40852742  0.74839597    -0.22900
C373        C  0.41268592  0.22142917  0.65940106    -0.05800
C374        C  0.38910997  0.25222496  0.67052692     0.00200
C375        C  0.39994720  0.27681603  0.71115474    -0.08400
C376        C  0.43410370  0.27005435  0.73830818    -0.05800
C377        C  0.46198879  0.24237472  0.72288203     0.00100
C378        C  0.44798826  0.21524117  0.68495351    -0.08300
C379        C  0.46582680  0.17724599  0.67431490     0.62000
H380        H  0.40271857  0.20152351  0.63014203     0.12700
H381        H  0.43820403  0.28747275  0.77259417     0.12800
C382        C  0.37617407  0.31121106  0.72420678     0.62300
F383        F  0.45666776  0.16371873  0.62422219    -0.22900
F384        F  0.00201871  0.18322402  0.69251846    -0.20200
F385        F  0.50423685  0.17823946  0.67622915    -0.19900
F386        F  0.39178912  0.33280000  0.76419787    -0.19900
F387        F  0.34058314  0.30094062  0.74052280    -0.20300
F388        F  0.37312590  0.33284773  0.67934655    -0.22900
C389        C  0.08466688  0.24027522  0.63729434    -0.05800
C390        C  0.11800984  0.24281176  0.66755380     0.00200
C391        C  0.11288998  0.24780007  0.72266125    -0.08400
C392        C  0.07550423  0.25015549  0.74399169    -0.05800
C393        C  0.04109669  0.24863040  0.71427671     0.00100
C394        C  0.04731977  0.24518932  0.65692523    -0.08300
C395        C  0.02030587  0.24909015  0.60945471     0.62000
H396        H  0.08761528  0.23691860  0.59467012     0.12700
H397        H  0.07364493  0.25722869  0.78470250     0.12800
C398        C  0.14664412  0.25166025  0.75893176     0.62300
F399        F  0.03486208  0.27469048  0.57428340    -0.22900
F400        F  0.48339962  0.27869667  0.63943269    -0.20200
F401        F  0.01865105  0.21533255  0.58268855    -0.19900
F402        F  0.16677877  0.28279007  0.74548910    -0.19900
F403        F  0.16952936  0.22040909  0.75381094    -0.20300
F404        F  0.13633560  0.25550659  0.81178875    -0.22900
C405        C  0.28908237  0.06633280  0.71646564    -0.05800
C406        C  0.25582009  0.04362738  0.71433663     0.00200
C407        C  0.22734926  0.05850475  0.67925247    -0.08400
C408        C  0.23010953  0.09555731  0.65971274    -0.05800
C409        C  0.26081921  0.11909472  0.66932676     0.00100
C410        C  0.29179863  0.10300513  0.69574131    -0.08300
C411        C  0.32827305  0.12450054  0.70064739     0.62000
H412        H  0.31421212  0.05568523  0.73453352     0.12700
H413        H  0.20808246  0.10592942  0.63409841     0.12800
C414        C  0.19326756  0.03768374  0.65888654     0.62300
F415        F  0.35550375  0.10516217  0.72852483    -0.22900
F416        F  0.32133171  0.15788002  0.72707094    -0.20200
F417        F  0.34260575  0.13167702  0.65057767    -0.19900
F418        F  0.16090225  0.05810098  0.67037364    -0.19900
F419        F  0.18887820  0.00302125  0.67979785    -0.20300
F420        F  0.19663223  0.03359774  0.60436260    -0.22900
C421        C  0.21841351  0.43713252  0.72638086    -0.05800
C422        C  0.24343834  0.46692494  0.71365497     0.00200
C423        C  0.26745195  0.45842243  0.66791472    -0.08400
C424        C  0.26819322  0.42160292  0.64516298    -0.05800
C425        C  0.24734619  0.39147637  0.66466991     0.00100
C426        C  0.22205786  0.39980606  0.70671140    -0.08300
C427        C  0.19941638  0.36909472  0.73188773     0.62000
H428        H  0.19531205  0.44208122  0.75286872     0.12700
H429        H  0.28536349  0.41574401  0.61044669     0.12800
C430        C  0.29189701  0.48712008  0.64017530     0.62300
F431        F  0.17400607  0.38261698  0.76960570    -0.22900
F432        F  0.22388165  0.34479152  0.75658645    -0.20200
F433        F  0.17950208  0.34983219  0.69376169    -0.19900
F434        F  0.31743489  0.50261519  0.67462916    -0.19900
F435        F  0.26959075  0.51451353  0.61854076    -0.20300
F436        F  0.31267130  0.47178136  0.59846398    -0.22900
C437        C  0.39236091  0.11453252  0.51106167    -0.05800
C438        C  0.39656822  0.15205906  0.49932871     0.00200
C439        C  0.42792249  0.16356983  0.47006839    -0.08400
C440        C  0.44620409  0.13687597  0.43842498    -0.05800
C441        C  0.44287257  0.09898000  0.45021928     0.00100
C442        C  0.41787028  0.08809769  0.49147417    -0.08300
C443        C  0.41630653  0.05018356  0.51667646     0.62000
H444        H  0.36938137  0.10596089  0.53658534     0.12700
H445        H  0.46696845  0.14562184  0.40958255     0.12800
C446        C  0.44470508  0.20189665  0.47719628     0.62300
F447        F  0.41065550  0.05415698  0.57103146    -0.22900
F448        F  0.44913998  0.02988542  0.50957191    -0.20200
F449        F  0.38627718  0.03102207  0.49561133    -0.19900
F450        F  0.43663880  0.21644538  0.52729336    -0.19900
F451        F  0.43099904  0.22551652  0.43906229    -0.20300
F452        F  0.48345041  0.20006505  0.47330615    -0.22900
C453        C  0.16763807  0.07953159  0.51459090    -0.05800
C454        C  0.15889914  0.11193643  0.54353133     0.00200
C455        C  0.12935277  0.11165052  0.58183867    -0.08400
C456        C  0.10524482  0.08114172  0.58228761    -0.05800
C457        C  0.10964496  0.05285969  0.54415817     0.00100
C458        C  0.14323045  0.04962479  0.51462829    -0.08300
C459        C  0.15233805  0.01734157  0.47800421     0.62000
H460        H  0.19184255  0.07870346  0.48800352     0.12700
H461        H  0.07946897  0.08231033  0.60560833     0.12800
C462        C  0.12021993  0.14462767  0.61730441     0.62300
F463        F  0.18763589  0.00333700  0.49035098    -0.22900
F464        F  0.15231741  0.03018769  0.42650878    -0.20200
F465        F  0.12695005  0.98868859  0.48191348    -0.19900
F466        F  0.10401650  0.17173949  0.58659577    -0.19900
F467        F  0.15260849  0.15773102  0.64086815    -0.20300
F468        F  0.09499833  0.13576292  0.65732210    -0.22900
C469        C  0.09993229  0.36204680  0.45793205    -0.05800
C470        C  0.11456516  0.34863592  0.50498182     0.00200
C471        C  0.09912425  0.35901186  0.55445451    -0.08400
C472        C  0.06480710  0.37790152  0.55507666    -0.05800
C473        C  0.05183237  0.39477032  0.50888534     0.00100
C474        C  0.06998999  0.38731172  0.45897407    -0.08300
C475        C  0.05947317  0.40636431  0.40732664     0.62000
H476        H  0.11347507  0.35418781  0.42084072     0.12700
H477        H  0.05038780  0.38357310  0.59232367     0.12800
C478        C  0.12145728  0.35436833  0.60497465     0.62300
F479        F  0.08596620  0.39954862  0.36756811    -0.22900
F480        F  0.05717467  0.44442119  0.41500302    -0.20200
F481        F  0.02546206  0.39326009  0.38927735    -0.19900
F482        F  0.15699542  0.36888030  0.59789762    -0.19900
F483        F  0.12465640  0.31723096  0.61685153    -0.20300
F484        F  0.10508226  0.37326468  0.64748091    -0.22900
C485        C  0.34161377  0.39794996  0.39684749    -0.05800
C486        C  0.34787110  0.39283347  0.45151644     0.00200
C487        C  0.36985907  0.41855276  0.47996657    -0.08400
C488        C  0.38595361  0.44816547  0.45225870    -0.05800
C489        C  0.38556506  0.44905777  0.39619690     0.00100
C490        C  0.36190380  0.42449546  0.36815333    -0.08300
C491        C  0.36472948  0.42154128  0.30802490     0.62000
H492        H  0.32401931  0.37830317  0.37585043     0.12700
H493        H  0.40599627  0.46553882  0.47269535     0.12800
C494        C  0.37987863  0.41225136  0.53757445     0.62300
F495        F  0.40011191  0.40896055  0.29327280    -0.22900
F496        F  0.35853341  0.45583211  0.28582511    -0.20200
F497        F  0.33937280  0.39693925  0.28726676    -0.19900
F498        F  0.40252264  0.38084351  0.54088473    -0.19900
F499        F  0.34764821  0.40711232  0.56729820    -0.20300
F500        F  0.39909488  0.44202348  0.55930299    -0.22900
C501        C  0.07257122  0.28270949  0.29087737    -0.05800
C502        C  0.04667226  0.25250355  0.29255432     0.00200
C503        C  0.05720822  0.22335890  0.32872515    -0.08400
C504        C  0.09429874  0.22185891  0.34921794    -0.05800
C505        C  0.12140957  0.24882617  0.33994322     0.00100
C506        C  0.10972289  0.28097325  0.31257022    -0.08300
C507        C  0.13671891  0.31287423  0.30506054     0.62000
H508        H  0.06476239  0.30774920  0.27105242     0.12700
H509        H  0.10299825  0.19881847  0.37365526     0.12800
C510        C  0.03048007  0.19408568  0.34939156     0.62300
F511        F  0.11894038  0.34348710  0.28351175    -0.22900
F512        F  0.16564634  0.30168438  0.27118963    -0.20200
F513        F  0.15190704  0.32362727  0.35322496    -0.19900
F514        F  0.01769425  0.17086722  0.30982164    -0.19900
F515        F  0.49547350  0.21639874  0.37760990    -0.20300
F516        F  0.04771776  0.17148498  0.38603064    -0.22900
C517        C  0.44458169  0.21409508  0.29128429    -0.05800
C518        C  0.47033306  0.24463561  0.28720267     0.00200
C519        C  0.45747703  0.27697501  0.31777722    -0.08400
C520        C  0.42014576  0.27913685  0.33955502    -0.05800
C521        C  0.39396220  0.25023481  0.33661331     0.00100
C522        C  0.40784173  0.21616692  0.31525685    -0.08300
C523        C  0.38454165  0.18126038  0.32075763     0.62000
H524        H  0.45333528  0.18697236  0.27799255     0.12700
H525        H  0.41151895  0.30405747  0.36144322     0.12800
C526        C  0.48057042  0.31079780  0.33134740     0.62300
F527        F  0.40504860  0.14950117  0.30791819    -0.22900
F528        F  0.35372157  0.18336448  0.28758001    -0.20200
F529        F  0.37215199  0.17760486  0.37264966    -0.19900
F530        F  0.51453589  0.31252644  0.30629633    -0.19900
F531        F  0.48697784  0.31089607  0.38541103    -0.20300
F532        F  0.46072539  0.34248813  0.31772904    -0.22900
C533        C  0.21611956  0.41118141  0.35407431    -0.05800
C534        C  0.23656176  0.38013127  0.33351213     0.00200
C535        C  0.25791045  0.38607677  0.28732193    -0.08400
C536        C  0.26276654  0.42313472  0.26910192    -0.05800
C537        C  0.24197450  0.45536490  0.28802990     0.00100
C538        C  0.21728372  0.44774696  0.33247250    -0.08300
C539        C  0.19226019  0.47707581  0.35980614     0.62000
H540        H  0.19902681  0.40644524  0.38900748     0.12700
H541        H  0.28368310  0.42569947  0.23902740     0.12800
C542        C  0.27501884  0.35322983  0.25652430     0.62300
F543        F  0.16775804  0.46128784  0.39577614    -0.22900
F544        F  0.17011170  0.49573518  0.32401931    -0.20200
F545        F  0.21410813  0.50201930  0.38759340    -0.19900
F546        F  0.24688372  0.32850728  0.24345822    -0.19900
F547        F  0.30176985  0.33519188  0.28685109    -0.20300
F548        F  0.29198598  0.36404892  0.20960540    -0.22900
C549        C  0.28160696  0.07817967  0.35761462    -0.05800
C550        C  0.25774515  0.10825307  0.34417734     0.00200
C551        C  0.22685896  0.09909600  0.31144161    -0.08400
C552        C  0.22325013  0.06201790  0.29027416    -0.05800
C553        C  0.25065500  0.03245534  0.29589885     0.00100
C554        C  0.27863425  0.04117765  0.33620651    -0.08300
C555        C  0.30750228  0.01426310  0.35935653     0.62000
H556        H  0.30346931  0.08369433  0.38650327     0.12700
H557        H  0.19757043  0.05653957  0.26969463     0.12800
C558        C  0.19655259  0.12824157  0.30109697     0.62300
F559        F  0.34327099  0.02864847  0.35393694    -0.22900
F560        F  0.30823691  0.97963759  0.33617630    -0.20200
F561        F  0.29999799  0.01030405  0.41302671    -0.19900
F562        F  0.21211238  0.15781614  0.27466222    -0.19900
F563        F  0.18128713  0.14089517  0.34887429    -0.20300
F564        F  0.16758651  0.11447926  0.27031048    -0.22900
O565        O  0.25027816  0.67862405  0.35337922    -0.86500
O566        O  0.24899642  0.68590137  0.65459975    -0.86600
O567        O  0.32646539  0.65774344  0.51039846    -0.88300
O568        O  0.20952643  0.63950521  0.51686759    -0.87100
O569        O  0.15750312  0.67753777  0.51620880    -0.86700
O570        O  0.36346932  0.70897637  0.50940814    -0.88000
O571        O  0.26003400  0.64407915  0.58581917    -0.86500
O572        O  0.26124624  0.64015749  0.42388442    -0.86100
Zr573      Zr  0.26219949  0.67853683  0.50443667     2.84300
O574        O  0.22016801  0.71073015  0.56048245    -1.08100
O575        O  0.29457198  0.71875069  0.44873331    -1.08800
C576        C  0.25446649  0.64517132  0.37414674     1.06600
C577        C  0.25331475  0.65175638  0.63505706     1.06600
C578        C  0.35850675  0.67396396  0.51067071     1.09500
C579        C  0.17424830  0.64596743  0.52205886     1.07300
H580        H  0.30858799  0.70676551  0.58195870     0.32900
O581        O  0.29135106  0.72120684  0.56074651    -1.29000
H582        H  0.20436403  0.68901396  0.42820587     0.32600
O583        O  0.21919381  0.70698425  0.44733332    -1.30700
O584        O  0.24885619  0.82203853  0.65216569    -0.86500
O585        O  0.24746886  0.81250988  0.35013385    -0.88000
O586        O  0.35679863  0.75916776  0.59153237    -0.86600
O587        O  0.14337374  0.74086560  0.58556972    -0.86600
O588        O  0.14407650  0.74195881  0.42217550    -0.86300
O589        O  0.35959309  0.76131680  0.42235947    -0.86100
O590        O  0.29281094  0.86256223  0.48947575    -0.86500
O591        O  0.17632473  0.84457801  0.50495381    -0.86000
O592        O  0.34578666  0.82596757  0.49430913    -0.87000
O593        O  0.13857399  0.79351852  0.50887712    -0.86200
O594        O  0.31374694  0.75058189  0.65926518    -0.86600
O595        O  0.31932043  0.74925454  0.35279325    -0.86300
O596        O  0.18497845  0.75051657  0.35226649    -0.85900
O597        O  0.18201974  0.75073913  0.65651605    -0.86400
O598        O  0.24267138  0.86122990  0.58137559    -0.86700
O599        O  0.23589873  0.85381114  0.41890822    -0.88000
Zr600      Zr  0.24908358  0.75315950  0.61921542     2.83100
Zr601      Zr  0.25165778  0.74699964  0.38887148     2.83500
Zr602      Zr  0.32403531  0.76223101  0.50584790     2.84100
Zr603      Zr  0.17875025  0.74035140  0.50421542     2.83400
Zr604      Zr  0.24036113  0.82253312  0.50249728     2.84200
O605        O  0.20991637  0.78011001  0.44697872    -1.08600
O606        O  0.28195667  0.79440567  0.56204153    -1.08100
C607        C  0.24660614  0.85567293  0.63141503     1.06600
C608        C  0.24112787  0.84633308  0.36923301     1.09200
C609        C  0.34814830  0.75281822  0.64068650     1.06800
C610        C  0.14851916  0.74613735  0.63560144     1.07100
C611        C  0.15098873  0.74766989  0.37265508     1.06700
C612        C  0.35310129  0.75509788  0.37252760     1.06300
C613        C  0.32841099  0.85705913  0.48591653     1.06700
C614        C  0.14442581  0.82846431  0.50841766     1.06200
H615        H  0.29589177  0.80623347  0.42481749     0.32900
O616        O  0.28207210  0.78949078  0.44698216    -1.29700
H617        H  0.19039733  0.79815090  0.58076644     0.32900
O618        O  0.20829458  0.78351081  0.55996885    -1.31000
N619        N  0.97467730  0.94777280  0.45797951    -0.36600
N620        N  0.02399011  0.49113395  0.52521413    -0.57200
N621        N  0.51593448  0.54903864  0.43897499    -0.36600
N622        N  0.42088757  0.52430685  0.38147841    -0.57200
C623        C  0.98793877  0.91967738  0.48674062     0.27000
C624        C  0.45570765  0.93302919  0.42944488     0.27000
C625        C  0.04013261  0.56121779  0.47867133     0.27000
C626        C  0.49227121  0.57824189  0.43594961     0.27000
C627        C  0.03077060  0.95385513  0.54677004     0.35600
C628        C  0.04740730  0.51529895  0.54882468     0.35600
C629        C  0.44142473  0.98855142  0.38171941     0.35600
C630        C  0.44821617  0.54933977  0.37324840     0.35600
C631        C  0.97003207  0.88692085  0.47371791    -0.21900
C632        C  0.45332012  0.89492392  0.43518071    -0.21900
C633        C  0.05497152  0.58343086  0.43888828    -0.21900
C634        C  0.50420289  0.60624574  0.47049680    -0.21900
C635        C  0.05716127  0.95346062  0.58745023    -0.22900
C636        C  0.06920019  0.49762134  0.58638182    -0.22900
C637        C  0.47572943  0.99022990  0.35511839    -0.22900
C638        C  0.47364278  0.53616635  0.33534368    -0.22900
C639        C  0.01838372  0.92173610  0.52024512    -0.18300
C640        C  0.42944412  0.95487713  0.40323675    -0.18300
C641        C  0.45684385  0.57666931  0.41137085    -0.18300
C642        C  0.05870816  0.54755246  0.52326685    -0.18300
H643        H  0.97464935  0.85980048  0.49077466     0.14600
H644        H  0.43551858  0.87587447  0.41361525     0.14600
H645        H  0.08265054  0.59552377  0.43682067     0.14600
H646        H  0.49102468  0.63220956  0.48087937     0.14600
H647        H  0.06483394  0.93074685  0.61291590     0.12900
H648        H  0.09220927  0.50912998  0.60909246     0.12900
H649        H  0.49140842  0.96706954  0.33767355     0.12900
H650        H  0.49981017  0.54894240  0.32360244     0.12900
H651        H  0.48389396  0.97571021  0.47199269     0.26200
H652        H  0.51448134  0.52434020  0.41746176     0.26200
O653        O  0.50221174  0.92409881  0.85244907    -0.86500
O654        O  0.49994109  0.92587801  0.15292621    -0.86600
O655        O  0.07062063  0.91034531  0.98465877    -0.88300
O656        O  0.44511054  0.89133767  0.98746360    -0.87100
O657        O  0.39655958  0.93297921  0.98601777    -0.86700
O658        O  0.11244632  0.95802473  0.98978410    -0.88000
O659        O  0.50635505  0.88583006  0.08172131    -0.86500
O660        O  0.50413343  0.88549269  0.92380851    -0.86100
Zr661      Zr  0.50449114  0.92264682  0.00121704     2.84300
O662        O  0.46294922  0.95581885  0.05644045    -1.08100
O663        O  0.04049989  0.97252099  0.95054940    -1.08800
C664        C  0.50342521  0.89036726  0.87400953     1.06600
C665        C  0.50301408  0.89208075  0.13225833     1.06600
C666        C  0.10365498  0.92449159  0.97927799     1.09500
C667        C  0.41020634  0.90008643  0.98020292     1.07300
H668        H  0.05924506  0.95350824  0.08189351     0.32900
O669        O  0.04213736  0.96956085  0.06296116    -1.29000
H670        H  0.45125464  0.94187015  0.92175076     0.32600
O671        O  0.46591852  0.95766008  0.94474941    -1.30700
O672        O  0.49889638  0.55639471  0.15707911    -0.86500
O673        O  0.49315101  0.56211649  0.85112497    -0.88000
O674        O  0.10931245  0.00670179  0.08811156    -0.86600
O675        O  0.38940085  0.98481078  0.08134274    -0.86600
O676        O  0.38672310  0.49834329  0.92060584    -0.86300
O677        O  0.10332313  0.50904072  0.92251096    -0.86100
O678        O  0.03879946  0.61044842  0.00532019    -0.86500
O679        O  0.42280500  0.58874780  0.00075250    -0.86000
O680        O  0.08935686  0.57123005  0.00585388    -0.87000
O681        O  0.38313717  0.54218480  0.02089421    -0.86200
O682        O  0.06735481  0.00090871  0.15755907    -0.86600
O683        O  0.06180617  0.50344019  0.85291688    -0.86300
O684        O  0.42843530  0.49796475  0.85011971    -0.85900
O685        O  0.43066020  0.98857715  0.15133663    -0.86400
O686        O  0.49141242  0.59765507  0.08880671    -0.86700
O687        O  0.48396066  0.60175595  0.92271433    -0.88000
Zr688      Zr  0.49806811  0.99242987  0.11667551     2.83100
Zr689      Zr  0.49572549  0.49501933  0.88559511     2.83500
Zr690      Zr  0.07446139  0.01126821  0.00701275     2.84100
Zr691      Zr  0.42499829  0.99229198  0.00050969     2.83400
Zr692      Zr  0.48539105  0.56474851  0.00350038     2.84200
O693        O  0.45327637  0.52655424  0.94507856    -1.08600
O694        O  0.02676659  0.53868330  0.06211155    -1.08100
C695        C  0.49742043  0.59044137  0.13823564     1.06600
C696        C  0.48824773  0.59563839  0.87228543     1.09200
C697        C  0.10173954  0.00304291  0.13776105     1.06800
C698        C  0.39659938  0.98589658  0.13142447     1.07100
C699        C  0.39416223  0.49986082  0.87042059     1.06700
C700        C  0.09615893  0.50581777  0.87270145     1.06300
C701        C  0.07395112  0.60396348  0.00635556     1.06700
C702        C  0.39101079  0.57668761  0.01666402     1.06200
H703        H  0.04183664  0.55881698  0.92806501     0.32900
O704        O  0.02736246  0.54132302  0.94827296    -1.29700
H705        H  0.43708342  0.53999786  0.08398219     0.32900
O706        O  0.45383250  0.52541307  0.06129163    -1.31000
N707        N  0.25067647  0.76796141  0.93813829    -0.36600
N708        N  0.31122613  0.72937930  0.00680328    -0.57200
N709        N  0.23618422  0.72329578  0.10818969    -0.36600
N710        N  0.18639043  0.75147231  0.00118745    -0.57200
C711        C  0.28330274  0.77383099  0.91209572     0.27000
C712        C  0.22377069  0.78820060  0.91396819     0.27000
C713        C  0.26367061  0.69821736  0.11774369     0.27000
C714        C  0.20372593  0.70471241  0.10947398     0.27000
C715        C  0.31870897  0.76447622  0.99285155     0.35600
C716        C  0.30595393  0.73089325  0.05996188     0.35600
C717        C  0.17710988  0.78612110  0.98684941     0.35600
C718        C  0.17365314  0.74821928  0.05120859     0.35600
C719        C  0.27573966  0.79211351  0.86500665    -0.21900
C720        C  0.23813520  0.80222222  0.86714976    -0.21900
C721        C  0.24785814  0.66631101  0.13838567    -0.21900
C722        C  0.20945768  0.67010549  0.13128583    -0.21900
C723        C  0.31868132  0.78801803  0.03720284    -0.22900
C724        C  0.30958705  0.76659923  0.07998255    -0.22900
C725        C  0.15406177  0.80277458  0.02563023    -0.22900
C726        C  0.15304383  0.77880117  0.06732845    -0.22900
C727        C  0.31749450  0.77690471  0.94019249    -0.18300
C728        C  0.19306344  0.80382082  0.94248378    -0.18300
C729        C  0.17360744  0.71467124  0.07689937    -0.18300
C730        C  0.29823613  0.69954260  0.08997123    -0.18300
H731        H  0.29623094  0.80346731  0.83786752     0.14600
H732        H  0.22450133  0.82209285  0.84162422     0.14600
H733        H  0.26229544  0.64069099  0.14827122     0.14600
H734        H  0.18893992  0.64830357  0.13393098     0.14600
H735        H  0.32195420  0.81787436  0.03800388     0.12900
H736        H  0.30635279  0.77582575  0.12092685     0.12900
H737        H  0.14054214  0.82979014  0.02540161     0.12900
H738        H  0.13855195  0.78286232  0.10467246     0.12900
H739        H  0.24927068  0.75923514  0.97733696     0.26200
H740        H  0.23955237  0.74873695  0.08945354     0.26200
C741        C  0.50355241  0.74257810  0.25284420    -0.02500
C742        C  0.24293941  0.49439789  0.25529576    -0.02500
C743        C  0.99937688  0.75082703  0.75504281    -0.02500
C744        C  0.25237237  0.00618760  0.75079082    -0.02500
C745        C  0.15862985  0.52664525  0.15954928    -0.05800
C746        C  0.13701810  0.00154176  0.17159102     0.00200
C747        C  0.14631518  0.97188475  0.20519043    -0.08400
C748        C  0.18330921  0.96908053  0.22600440    -0.05800
C749        C  0.21189885  0.99675415  0.22065917     0.00100
C750        C  0.19474294  0.52605644  0.18395026    -0.08300
C751        C  0.21880433  0.55914461  0.16928277     0.62000
H752        H  0.15190609  0.54898937  0.13253946     0.12700
H753        H  0.18926815  0.94392181  0.24666568     0.12800
C754        C  0.11786418  0.94198776  0.21742837     0.62300
F755        F  0.22588570  0.55810821  0.11526002    -0.22900
F756        F  0.25270387  0.56134083  0.19470057    -0.20200
F757        F  0.19885695  0.59134456  0.18147454    -0.19900
F758        F  0.10921422  0.92266489  0.17127539    -0.19900
F759        F  0.08546285  0.95804511  0.23864853    -0.20300
F760        F  0.13137874  0.91688693  0.25413024    -0.22900
C761        C  0.32998011  0.96573974  0.14914506    -0.05800
C762        C  0.36145466  0.98599526  0.16645089     0.00200
C763        C  0.34816554  0.51224905  0.20546734    -0.08400
C764        C  0.31152576  0.51651142  0.22796864    -0.05800
C765        C  0.28710557  0.99346186  0.21854835     0.00100
C766        C  0.29309425  0.96945669  0.17205796    -0.08300
C767        C  0.26189007  0.94841071  0.14298353     0.62000
H768        H  0.33448469  0.94765123  0.11491495     0.12700
H769        H  0.30740598  0.54059892  0.25233377     0.12800
C770        C  0.37807387  0.53982718  0.21961988     0.62300
F771        F  0.23944858  0.97314222  0.11584254    -0.22900
F772        F  0.23339307  0.42837218  0.16980315    -0.20200
F773        F  0.27639089  0.92327867  0.10582031    -0.19900
F774        F  0.38834096  0.55733234  0.17359464    -0.19900
F775        F  0.41575870  0.01692533  0.24674206    -0.20300
F776        F  0.37507446  0.06374543  0.26274541    -0.22900
C777        C  0.48700662  0.82388605  0.14158284    -0.05800
C778        C  0.50135336  0.85625379  0.16587251     0.00200
C779        C  0.96659211  0.84779303  0.19053882    -0.08400
C780        C  0.96818993  0.81025049  0.21068252    -0.05800
C781        C  0.50080622  0.78185677  0.21851183     0.00100
C782        C  0.48440867  0.78833979  0.16655852    -0.08300
C783        C  0.45952110  0.76087878  0.13825485     0.62000
H784        H  0.47620252  0.82716710  0.10181505     0.12700
H785        H  0.94234907  0.79890453  0.22567503     0.12800
C786        C  0.92948184  0.86903640  0.19097410     0.62300
F787        F  0.44286809  0.77512439  0.09308253    -0.22900
F788        F  0.43040746  0.75219697  0.17215116    -0.20200
F789        F  0.09532185  0.78512499  0.17848425    -0.19900
F790        F  0.50562931  0.91195584  0.25668845    -0.19900
F791        F  0.90127771  0.84980598  0.21662712    -0.20300
F792        F  0.91825705  0.87524439  0.13926910    -0.22900
C793        C  0.03128104  0.64607178  0.19242492    -0.05800
C794        C  0.50083858  0.62566342  0.17366868     0.00200
C795        C  0.46848981  0.64635981  0.18854775    -0.08400
C796        C  0.47064945  0.68444181  0.20392321    -0.05800
C797        C  0.50441626  0.70398615  0.21532978     0.00100
C798        C  0.03833043  0.68317526  0.21158484    -0.08300
C799        C  0.08049257  0.68865899  0.22046935     0.62000
H800        H  0.05444449  0.62627003  0.18841536     0.12700
H801        H  0.44426788  0.69844447  0.20891045     0.12800
C802        C  0.43132319  0.62689042  0.19126281     0.62300
F803        F  0.10059805  0.67473286  0.17703592    -0.22900
F804        F  0.09170036  0.66904542  0.26459100    -0.20200
F805        F  0.09136762  0.72465451  0.22599267    -0.19900
F806        F  0.43446448  0.59926146  0.22866251    -0.19900
F807        F  0.42314346  0.61163536  0.14224181    -0.20300
F808        F  0.40181969  0.65034013  0.20590680    -0.22900
C809        C  0.16584287  0.89693934  0.98979068    -0.05800
C810        C  0.13390415  0.90100983  0.95841291     0.00200
C811        C  0.13246413  0.88315196  0.90792796    -0.08400
C812        C  0.15711947  0.85314759  0.89841797    -0.05800
C813        C  0.18409993  0.84361067  0.93622942     0.00100
C814        C  0.19227388  0.86911967  0.97803806    -0.08300
C815        C  0.22572934  0.86581851  0.01464500     0.62000
H816        H  0.16888965  0.91378175  0.02561494     0.12700
H817        H  0.15335579  0.83551969  0.86372749     0.12800
C818        C  0.10675578  0.89525556  0.86321348     0.62300
F819        F  0.24509986  0.89886201  0.01391401    -0.22900
F820        F  0.25018213  0.83757569  0.99945600    -0.20200
F821        F  0.21362590  0.85950982  0.06608713    -0.19900
F822        F  0.08186277  0.92311383  0.87843945    -0.19900
F823        F  0.08687602  0.86526318  0.84402179    -0.20300
F824        F  0.12812344  0.90887342  0.82213920    -0.22900
C825        C  0.40195254  0.83484900  0.95233390    -0.05800
C826        C  0.38524773  0.87018439  0.96069443     0.00200
C827        C  0.34683838  0.87572040  0.94613885    -0.08400
C828        C  0.32599925  0.84443204  0.93190863    -0.05800
C829        C  0.34224609  0.80871455  0.92981872     0.00100
C830        C  0.38137540  0.80439669  0.93490621    -0.08300
C831        C  0.40109353  0.76778721  0.92144693     0.62000
H832        H  0.43137263  0.83062528  0.96030974     0.12700
H833        H  0.29596710  0.84731757  0.92696645     0.12800
C834        C  0.32666684  0.91333193  0.94689071     0.62300
F835        F  0.39114743  0.74073285  0.95704760    -0.22900
F836        F  0.43987752  0.77101797  0.92236794    -0.20200
F837        F  0.39085977  0.75660019  0.87082908    -0.19900
F838        F  0.34539611  0.93787223  0.91474066    -0.19900
F839        F  0.32446147  0.92733105  0.99832428    -0.20300
F840        F  0.29036525  0.91087546  0.92769521    -0.22900
C841        C  0.38129340  0.63862202  0.05390346    -0.05800
C842        C  0.36451665  0.60566857  0.03602192     0.00200
C843        C  0.32505318  0.60192414  0.03991674    -0.08400
C844        C  0.30383598  0.63315237  0.05719333    -0.05800
C845        C  0.32104419  0.66582243  0.07628953     0.00100
C846        C  0.36069004  0.66775168  0.07647383    -0.08300
C847        C  0.38209039  0.70037751  0.09962086     0.62000
H848        H  0.41156245  0.64147863  0.05155011     0.12700
H849        H  0.27374119  0.63213120  0.05578093     0.12800
C850        C  0.30554361  0.56571994  0.02618302     0.62300
F851        F  0.41884532  0.69033280  0.11028981    -0.22900
F852        F  0.36553568  0.71257615  0.14674994    -0.20200
F853        F  0.38317903  0.72901935  0.06383506    -0.19900
F854        F  0.31574883  0.53878186  0.06222331    -0.19900
F855        F  0.31547877  0.55397342  0.97552178    -0.20300
F856        F  0.26685266  0.56933897  0.02792320    -0.22900
C857        C  0.13654672  0.63110714  0.00217236    -0.05800
C858        C  0.09811498  0.63634082  0.01186118     0.00200
C859        C  0.08480417  0.67127170  0.03208271    -0.08400
C860        C  0.11082869  0.69423189  0.05662008    -0.05800
C861        C  0.14936159  0.68691536  0.05229810     0.00100
C862        C  0.16235757  0.65774760  0.01801255    -0.08300
C863        C  0.20165858  0.65305443  0.99528230     0.62000
H864        H  0.14650685  0.60629855  0.98115835     0.12700
H865        H  0.10129636  0.71896894  0.07792933     0.12800
C866        C  0.04474757  0.68600015  0.02584993     0.62300
F867        F  0.19964888  0.64998159  0.94042013    -0.22900
F868        F  0.21675316  0.62052672  0.01436179    -0.20200
F869        F  0.22524863  0.68211143  0.00709277    -0.19900
F870        F  0.02100438  0.66974119  0.06208878    -0.19900
F871        F  0.03235433  0.67914414  0.97461314    -0.20300
F872        F  0.04278207  0.72412453  0.03416384    -0.22900
C873        C  0.33020944  0.52835802  0.85172635    -0.05800
C874        C  0.35898749  0.50309309  0.83592981     0.00200
C875        C  0.35454294  0.97487746  0.79763613    -0.08400
C876        C  0.31758521  0.97528157  0.77628088    -0.05800
C877        C  0.28343077  0.50263215  0.78779471     0.00100
C878        C  0.29324866  0.52936106  0.82911345    -0.08300
C879        C  0.26587369  0.55886669  0.85219020     0.62000
H880        H  0.33728770  0.54771677  0.88318182     0.12700
H881        H  0.31076569  0.95225615  0.75076971     0.12800
C882        C  0.38170737  0.94329983  0.78321767     0.62300
F883        F  0.28435240  0.58502920  0.88296756    -0.22900
F884        F  0.24742486  0.04649402  0.88171057    -0.20200
F885        F  0.24756513  0.57847559  0.81345668    -0.19900
F886        F  0.41279155  0.95744579  0.75745236    -0.19900
F887        F  0.36704932  0.42826425  0.73309015    -0.20300
F888        F  0.39331480  0.92539906  0.82867828    -0.22900
C889        C  0.16903625  0.98268881  0.85414342    -0.05800
C890        C  0.13203565  0.50467641  0.83874800     0.00200
C891        C  0.14337046  0.53472515  0.80737455    -0.08400
C892        C  0.18073787  0.53567059  0.78621860    -0.05800
C893        C  0.20829595  0.50651269  0.79116892     0.00100
C894        C  0.20647323  0.98312186  0.83249861    -0.08300
C895        C  0.23505306  0.95697256  0.85879186     0.62000
H896        H  0.16191189  0.96271087  0.88421807     0.12700
H897        H  0.18829435  0.56078996  0.76688582     0.12800
C898        C  0.11641955  0.56703331  0.79879115     0.62300
F899        F  0.25710164  0.97700453  0.89360302    -0.23300
F900        F  0.25814759  0.93846630  0.82304623    -0.20200
F901        F  0.21732107  0.92976389  0.88782154    -0.19900
F902        F  0.10762657  0.58389406  0.84716328    -0.19900
F903        F  0.08375224  0.55434294  0.77546521    -0.20300
F904        F  0.13176868  0.59343832  0.76597066    -0.22900
C905        C  0.02031907  0.64722836  0.81641068    -0.05800
C906        C  0.48871437  0.63111245  0.83857655     0.00200
C907        C  0.46037253  0.65960172  0.84271242    -0.08400
C908        C  0.46580845  0.69511536  0.81871090    -0.05800
C909        C  0.00176911  0.71353491  0.79380540     0.00100
C910        C  0.02985985  0.68283829  0.79530830    -0.08300
C911        C  0.07153394  0.68541603  0.78109035     0.62000
H912        H  0.04012605  0.62417062  0.81446990     0.12700
H913        H  0.44293567  0.71517583  0.82071234     0.12800
C914        C  0.42469756  0.65408019  0.87499140     0.62300
F915        F  0.09217236  0.65405910  0.79412734    -0.22900
F916        F  0.08754372  0.71364259  0.81040905    -0.20200
F917        F  0.07636577  0.68912680  0.72721543    -0.19900
F918        F  0.43085001  0.66603734  0.92668184    -0.19900
F919        F  0.41413100  0.61720649  0.87523524    -0.20300
F920        F  0.39501139  0.67437617  0.85430306    -0.22900
C921        C  0.99817779  0.86208361  0.79175328    -0.05800
C922        C  0.50413400  0.85273378  0.84313936     0.00200
C923        C  0.51053483  0.81684231  0.86781246    -0.08400
C924        C  0.50583220  0.78319663  0.83803305    -0.05800
C925        C  0.00036762  0.79171952  0.78522966     0.00100
C926        C  0.99785178  0.82847672  0.76004055    -0.08300
C927        C  0.99525951  0.83499572  0.69997349     0.62000
H928        H  0.99371430  0.88884410  0.77370590     0.12700
H929        H  0.50822845  0.75721650  0.85846552     0.12800
C930        C  0.52468959  0.81227626  0.92487905     0.62300
F931        F  0.99575269  0.87234699  0.68746395    -0.22900
F932        F  0.96230783  0.82154349  0.67948456    -0.20200
F933        F  0.02561939  0.81946882  0.67366045    -0.19900
F934        F  0.49756033  0.82316187  0.96157682    -0.19900
F935        F  0.55681066  0.83287992  0.93215773    -0.20300
F936        F  0.53414874  0.77579170  0.93626137    -0.22900
C937        C  0.40308100  0.71402574  0.67186416    -0.05800
C938        C  0.38129159  0.74671281  0.67695365     0.00200
C939        C  0.39366654  0.77392829  0.71285752    -0.08400
C940        C  0.42880985  0.76893903  0.73837218    -0.05800
C941        C  0.45608996  0.74007602  0.72522822     0.00100
C942        C  0.43906689  0.70924109  0.69637594    -0.08300
C943        C  0.45579418  0.67039865  0.68870144     0.62000
H944        H  0.39188099  0.69185664  0.64719238     0.12700
H945        H  0.43376281  0.78833146  0.77025484     0.12800
C946        C  0.36960412  0.80847583  0.72377594     0.62300
F947        F  0.43591857  0.64597773  0.71983201    -0.22900
F948        F  0.00428600  0.68167430  0.69285022    -0.20200
F949        F  0.45201384  0.65899714  0.63616267    -0.19900
F950        F  0.33506272  0.79828417  0.74422964    -0.19900
F951        F  0.36400210  0.82743743  0.67693099    -0.20300
F952        F  0.38618060  0.83253618  0.75984371    -0.22900
C953        C  0.07753869  0.74167932  0.63898598    -0.05800
C954        C  0.11127786  0.74844923  0.66726249     0.00200
C955        C  0.10669140  0.76173906  0.72004747    -0.08400
C956        C  0.06983400  0.76458429  0.74259937    -0.05800
C957        C  0.03595121  0.75285564  0.71697264     0.00100
C958        C  0.04059173  0.74617263  0.66027499    -0.08300
C959        C  0.01103979  0.74802022  0.61626582     0.62000
H960        H  0.07960144  0.73430029  0.59716781     0.12700
H961        H  0.06797722  0.77368041  0.78351965     0.12800
C962        C  0.14033450  0.77106394  0.75411032     0.62300
F963        F  0.02386557  0.77074912  0.57612561    -0.22900
F964        F  0.48206615  0.73368797  0.62383992    -0.20200
F965        F  0.00599952  0.71305768  0.59432529    -0.19900
F966        F  0.16130740  0.79787075  0.72984130    -0.19900
F967        F  0.16229990  0.73952760  0.76081386    -0.20300
F968        F  0.12988484  0.78458806  0.80387139    -0.22900
C969        C  0.27964873  0.56554807  0.71803500    -0.05800
C970        C  0.24725461  0.54191635  0.71578934     0.00200
C971        C  0.21821420  0.55557790  0.68032866    -0.08400
C972        C  0.22024891  0.59238108  0.65944363    -0.05800
C973        C  0.25035609  0.61686659  0.66881171     0.00100
C974        C  0.28158467  0.60179784  0.69593525    -0.08300
C975        C  0.31770714  0.62386463  0.70000444     0.62000
H976        H  0.30473203  0.55595147  0.73732388     0.12700
H977        H  0.19807475  0.60185152  0.63334151     0.12800
C978        C  0.18421815  0.53367578  0.66121880     0.62300
F979        F  0.34603461  0.60442523  0.72552155    -0.22900
F980        F  0.31069050  0.65647941  0.72824685    -0.20200
F981        F  0.33068632  0.63238055  0.64967399    -0.19900
F982        F  0.15162070  0.55420908  0.67061910    -0.19900
F983        F  0.17973848  0.49995618  0.68507381    -0.20300
F984        F  0.18761935  0.52734994  0.60703929    -0.22900
C985        C  0.22470343  0.93865707  0.72869567    -0.05800
C986        C  0.24930377  0.96816338  0.71361145     0.00200
C987        C  0.27178146  0.95878222  0.66675965    -0.08400
C988        C  0.26912970  0.92249713  0.64237980    -0.05800
C989        C  0.24925182  0.89234624  0.66411325     0.00100
C990        C  0.22722266  0.90116735  0.70935258    -0.08300
C991        C  0.20352534  0.87171986  0.73465211     0.62000
H992        H  0.20218948  0.94403311  0.75602787     0.12700
H993        H  0.28210229  0.91757585  0.60415544     0.12800
C994        C  0.29776288  0.98612752  0.63923501     0.62300
F995        F  0.17503517  0.86238237  0.70025359    -0.22900
F996        F  0.18785331  0.88381214  0.78217118    -0.20200
F997        F  0.22532642  0.84074027  0.74545577    -0.19900
F998        F  0.32298836  0.00133494  0.67438507    -0.19900
F999        F  0.27687563  0.01383356  0.61568445    -0.20300
F1000       F  0.31909621  0.96922438  0.59936250    -0.22900
C1001       C  0.38763371  0.61268559  0.51357031    -0.05800
C1002       C  0.39181870  0.65056227  0.50473297     0.00200
C1003       C  0.41992535  0.66260728  0.46979132    -0.08400
C1004       C  0.43166609  0.63783488  0.42991396    -0.05800
C1005       C  0.42748307  0.59942118  0.43727279     0.00100
C1006       C  0.40752593  0.58657264  0.48271953    -0.08300
C1007       C  0.40470760  0.54612214  0.49804184     0.62000
H1008       H  0.36702327  0.60369523  0.54252635     0.12700
H1009       H  0.45072583  0.64750649  0.39934141     0.12800
C1010       C  0.43920803  0.69990700  0.47639424     0.62300
F1011       F  0.39415340  0.54274761  0.55087693    -0.22900
F1012       F  0.43886409  0.52769352  0.49169752    -0.20200
F1013       F  0.37746777  0.52949247  0.46723839    -0.19900
F1014       F  0.43232220  0.71556289  0.52617275    -0.19900
F1015       F  0.42716201  0.72397080  0.43778223    -0.20300
F1016       F  0.47777150  0.69559951  0.47190699    -0.22900
C1017       C  0.15478669  0.58295220  0.50286383    -0.05800
C1018       C  0.15133551  0.61458007  0.53537907     0.00200
C1019       C  0.12368796  0.61654255  0.57599260    -0.08400
C1020       C  0.09490745  0.59090597  0.57458362    -0.05800
C1021       C  0.09495410  0.56308589  0.53579004     0.00100
C1022       C  0.12673362  0.55638047  0.50291286    -0.08300
C1023       C  0.13127737  0.52356410  0.46508532     0.62000
H1024       H  0.17767404  0.58053400  0.47415753     0.12700
H1025       H  0.07101164  0.59413271  0.60147380     0.12800
C1026       C  0.12244439  0.64508426  0.62041263     0.62300
F1027       F  0.10106033  0.49980059  0.46531842    -0.22900
F1028       F  0.16289113  0.50362721  0.47995582    -0.20200
F1029       F  0.13611311  0.53622692  0.41383026    -0.19900
F1030       F  0.09045822  0.66671153  0.61482147    -0.19900
F1031       F  0.15383459  0.66725851  0.62139151    -0.20300
F1032       F  0.12049974  0.62723275  0.66858828    -0.22900
C1033       C  0.10051824  0.86842546  0.46429704    -0.05800
C1034       C  0.11157595  0.85149896  0.51090158     0.00200
C1035       C  0.09064915  0.85579010  0.55818645    -0.08400
C1036       C  0.05506672  0.87140285  0.55523450    -0.05800
C1037       C  0.04621303  0.89262877  0.51131860     0.00100
C1038       C  0.06913103  0.89170091  0.46439181    -0.08300
C1039       C  0.06245281  0.91598120  0.41597399     0.62000
H1040       H  0.11807905  0.86516383  0.42922244     0.12700
H1041       H  0.03720817  0.87338822  0.59031665     0.12800
C1042       C  0.10896903  0.85175936  0.61157775     0.62300
F1043       F  0.09101829  0.91179717  0.37844915    -0.22900
F1044       F  0.06119759  0.95301128  0.43097208    -0.20200
F1045       F  0.02918953  0.90655993  0.39142453    -0.19900
F1046       F  0.12048903  0.81581075  0.61824267    -0.19900
F1047       F  0.08511454  0.86186823  0.65322061    -0.20300
F1048       F  0.13987252  0.87467287  0.61321523    -0.22900
C1049       C  0.35008440  0.89199372  0.40941583    -0.05800
C1050       C  0.34957934  0.88810169  0.46473167     0.00200
C1051       C  0.36732594  0.91431779  0.49751905    -0.08400
C1052       C  0.38344961  0.94544244  0.47345498    -0.05800
C1053       C  0.39037310  0.94561067  0.41780153     0.00100
C1054       C  0.37227473  0.91893120  0.38519363    -0.08300
C1055       C  0.38132350  0.91320636  0.32652510     0.62000
H1056       H  0.33626448  0.87131679  0.38486014     0.12700
H1057       H  0.39942920  0.96424183  0.49822714     0.12800
C1058       C  0.37461064  0.90590672  0.55558177     0.62300
F1059       F  0.40046743  0.87975482  0.31931114    -0.22900
F1060       F  0.40288299  0.94123225  0.30563622    -0.20200
F1061       F  0.34840236  0.91186191  0.29820389    -0.19900
F1062       F  0.34162465  0.89710552  0.58121463    -0.19900
F1063       F  0.39071054  0.93557681  0.58220749    -0.20300
F1064       F  0.39884706  0.87564570  0.55856103    -0.22900
C1065       C  0.06718904  0.78239729  0.28711378    -0.05800
C1066       C  0.04083105  0.75255689  0.29002562     0.00200
C1067       C  0.05086636  0.72461971  0.32861463    -0.08400
C1068       C  0.08799984  0.72330437  0.34946632    -0.05800
C1069       C  0.11546219  0.75000006  0.33944708     0.00100
C1070       C  0.10390991  0.78143185  0.31028713    -0.08300
C1071       C  0.13015084  0.81410144  0.30418686     0.62000
H1072       H  0.05979931  0.80701942  0.26609031     0.12700
H1073       H  0.09616394  0.70091266  0.37543211     0.12800
C1074       C  0.02337677  0.69699978  0.35212887     0.62300
F1075       F  0.11291580  0.84351984  0.27868658    -0.22900
F1076       F  0.16147828  0.80315725  0.27476353    -0.20200
F1077       F  0.14165217  0.82660390  0.35360737    -0.19900
F1078       F  0.01106079  0.67211373  0.31427437    -0.19900
F1079       F  0.49618979  0.70227876  0.37280107    -0.20300
F1080       F  0.03935091  0.67633909  0.39243011    -0.22900
C1081       C  0.44110897  0.71427942  0.30093672    -0.05800
C1082       C  0.46652452  0.74460335  0.29387566     0.00200
C1083       C  0.45427028  0.77642947  0.32584769    -0.08400
C1084       C  0.41528677  0.78132671  0.34038572    -0.05800
C1085       C  0.38889472  0.75228455  0.33815596     0.00100
C1086       C  0.40330466  0.71745624  0.32046274    -0.08300
C1087       C  0.37912163  0.68301777  0.32494950     0.62000
H1088       H  0.45124728  0.68649776  0.29439076     0.12700
H1089       H  0.40684429  0.80641980  0.36197329     0.12800
C1090       C  0.48028023  0.79912597  0.36130701     0.62300
F1091       F  0.39842431  0.65091138  0.30996643    -0.22900
F1092       F  0.34796170  0.68670371  0.29266599    -0.20200
F1093       F  0.36714470  0.67874694  0.37686795    -0.19900
F1094       F  0.47938975  0.83597934  0.34658314    -0.19900
F1095       F  0.51680110  0.78596923  0.36153512    -0.20300
F1096       F  0.46787658  0.79742822  0.41357945    -0.22900
C1097       C  0.21948953  0.91238797  0.35431747    -0.05800
C1098       C  0.24060582  0.88136876  0.33526284     0.00200
C1099       C  0.26471027  0.88768473  0.29176570    -0.08400
C1100       C  0.27002615  0.92469792  0.27398593    -0.05800
C1101       C  0.24805476  0.95659873  0.29065133     0.00100
C1102       C  0.22194657  0.94906565  0.33339026    -0.08300
C1103       C  0.19681985  0.97863100  0.35969509     0.62000
H1104       H  0.20081225  0.90749027  0.38754944     0.12700
H1105       H  0.29217611  0.92766740  0.24570413     0.12800
C1106       C  0.28477015  0.85555224  0.26331621     0.62300
F1107       F  0.21870292  0.00283623  0.38865267    -0.22900
F1108       F  0.17116438  0.96293752  0.39416965    -0.20200
F1109       F  0.17594042  0.99829716  0.32349826    -0.19900
F1110       F  0.31169964  0.84016760  0.29606449    -0.19900
F1111       F  0.30225514  0.86670871  0.21691325    -0.20300
F1112       F  0.25892463  0.82872630  0.24932393    -0.22900
C1113       C  0.27640374  0.57880161  0.35337245    -0.05800
C1114       C  0.25093162  0.60813170  0.34208408     0.00200
C1115       C  0.21872062  0.59743476  0.31261793    -0.08400
C1116       C  0.21520380  0.55989018  0.29295311    -0.05800
C1117       C  0.24395780  0.53145497  0.29560357     0.00100
C1118       C  0.27312708  0.54132614  0.33359212    -0.08300
C1119       C  0.30264487  0.51498272  0.35600072     0.62000
H1120       H  0.29951771  0.58513708  0.37987100     0.12700
H1121       H  0.18895330  0.55325679  0.27452075     0.12800
C1122       C  0.18765094  0.62562552  0.30173611     0.62300
F1123       F  0.33829249  0.52695481  0.34265167    -0.22900
F1124       F  0.29933805  0.47903438  0.33874040    -0.20200
F1125       F  0.29956247  0.51513614  0.41087772    -0.19900
F1126       F  0.20154800  0.65281293  0.26891303    -0.19900
F1127       F  0.17499635  0.64186845  0.34879716    -0.20300
F1128       F  0.15701817  0.60963583  0.27686702    -0.22900
O1129       O  0.76015793  0.17491761  0.35706484    -0.86500
O1130       O  0.75707482  0.18490869  0.65830959    -0.86600
O1131       O  0.83658599  0.15837857  0.51152015    -0.88300
O1132       O  0.72218190  0.13388062  0.52060103    -0.87100
O1133       O  0.66799025  0.16871943  0.51887898    -0.86700
O1134       O  0.87103697  0.21094147  0.50319528    -0.88000
O1135       O  0.77151501  0.14336799  0.59041963    -0.86500
O1136       O  0.77256026  0.13749873  0.42823412    -0.86100
Zr1137     Zr  0.77169624  0.17655509  0.50745843     2.84300
O1138       O  0.72785068  0.20617263  0.56345614    -1.08100
O1139       O  0.80073667  0.21750964  0.44907013    -1.08800
C1140       C  0.76594263  0.14185285  0.37840321     1.06600
C1141       C  0.76351470  0.15086105  0.63940951     1.06600
C1142       C  0.86783412  0.17566048  0.50763363     1.09500
C1143       C  0.68663281  0.13839831  0.52567781     1.07300
H1144       H  0.81758870  0.20852662  0.58327494     0.32900
O1145       O  0.79899712  0.22134433  0.56224194    -1.29000
H1146       H  0.71344095  0.18283715  0.43035051     0.32600
O1147       O  0.72728088  0.20190008  0.44911947    -1.30700
O1148       O  0.75102797  0.31951569  0.65394540    -0.86500
O1149       O  0.74687992  0.31068184  0.35255539    -0.88000
O1150       O  0.86077356  0.26765691  0.58790747    -0.86600
O1151       O  0.64803715  0.23439895  0.58622105    -0.86600
O1152       O  0.64971284  0.23257087  0.42372133    -0.86300
O1153       O  0.86524724  0.26446022  0.42304226    -0.86100
O1154       O  0.78889401  0.36103259  0.48373435    -0.86500
O1155       O  0.67274781  0.33368959  0.50352879    -0.86000
O1156       O  0.84387890  0.32714230  0.48466446    -0.87000
O1157       O  0.63939098  0.27986716  0.51073475    -0.86200
O1158       O  0.81983519  0.25582903  0.65725353    -0.86600
O1159       O  0.82539903  0.24948223  0.35420925    -0.86300
O1160       O  0.68964349  0.24310441  0.35346450    -0.85900
O1161       O  0.68618910  0.25056942  0.65552404    -0.86400
O1162       O  0.74246376  0.35805424  0.58264252    -0.86700
O1163       O  0.73140185  0.35126219  0.42097607    -0.88000
Zr1164     Zr  0.75436619  0.25146745  0.62010299     2.83100
Zr1165     Zr  0.75657302  0.24391841  0.38941947     2.83500
Zr1166     Zr  0.82791325  0.26299913  0.50402502     2.84100
Zr1167     Zr  0.68489960  0.23235152  0.50603863     2.83400
Zr1168     Zr  0.73965293  0.31900753  0.50309107     2.84200
O1169       O  0.71286232  0.27389572  0.44814980    -1.08600
O1170       O  0.78424102  0.29335104  0.56066885    -1.08100
C1171       C  0.74714973  0.35273231  0.63275503     1.06600
C1172       C  0.73795827  0.34431040  0.37148170     1.09200
C1173       C  0.85335624  0.26160211  0.63728318     1.06800
C1174       C  0.65276222  0.24395667  0.63508134     1.07100
C1175       C  0.65587411  0.23889342  0.37407952     1.06700
C1176       C  0.85916764  0.25720797  0.37354316     1.06300
C1177       C  0.82422635  0.35675932  0.47558491     1.06700
C1178       C  0.64220570  0.31483758  0.50652851     1.06200
H1179       H  0.79535575  0.30475679  0.42334649     0.32900
O1180       O  0.78322434  0.28795870  0.44715589    -1.29700
H1181       H  0.69252121  0.29253189  0.58070229     0.32900
O1182       O  0.71120137  0.27831721  0.56078241    -1.31000
N1183       N  0.48410114  0.44235470  0.40379856    -0.36600
N1184       N  0.53255391  0.98645675  0.53877551    -0.57200
N1185       N  0.02965223  0.04512057  0.44957475    -0.36600
N1186       N  0.92706723  0.02305283  0.40575455    -0.57200
C1187       C  0.49671726  0.41371078  0.43249228     0.27000
C1188       C  0.94936983  0.43101979  0.42441890     0.27000
C1189       C  0.55171198  0.06127703  0.50533000     0.27000
C1190       C  0.00992447  0.07511144  0.43386302     0.27000
C1191       C  0.55324987  0.44230641  0.47252937     0.35600
C1192       C  0.56238903  0.00502908  0.55777330     0.35600
C1193       C  0.93458326  0.48098017  0.36201689     0.35600
C1194       C  0.95795703  0.04243252  0.39175370     0.35600
C1195       C  0.47238410  0.38429902  0.42937165    -0.21900
C1196       C  0.94430917  0.39534206  0.44348504    -0.21900
C1197       C  0.55139882  0.09964427  0.50583892    -0.21900
C1198       C  0.02832896  0.10686701  0.45054706    -0.21900
C1199       C  0.59072561  0.43971106  0.48832341    -0.22900
C1200       C  0.58358276  0.98327142  0.59130177    -0.22900
C1201       C  0.96827828  0.48289487  0.33480558    -0.22900
C1202       C  0.97950208  0.02278862  0.35480030    -0.22900
C1203       C  0.53093468  0.41212109  0.45844407    -0.18300
C1204       C  0.92444177  0.44929204  0.38960502    -0.18300
C1205       C  0.97148940  0.07294370  0.42104043    -0.18300
C1206       C  0.57327600  0.03961953  0.53953410    -0.18300
H1207       H  0.47422212  0.35841122  0.45052444     0.14600
H1208       H  0.92347585  0.37532403  0.43185187     0.14600
H1209       H  0.56720485  0.11839199  0.53083176     0.14600
H1210       H  0.01866886  0.13514325  0.44990631     0.14600
H1211       H  0.60853051  0.41524922  0.49094148     0.12900
H1212       H  0.60968030  0.99034052  0.61083566     0.12900
H1213       H  0.98620358  0.45978027  0.32232038     0.12900
H1214       H  0.00674402  0.03031051  0.33896205     0.12900
H1215       H  0.98817900  0.47405241  0.44394806     0.26200
H1216       H  0.02205471  0.01774671  0.44296373     0.26200
O1217       O  0.99372857  0.43665219  0.84793012    -0.86500
O1218       O  0.99498527  0.42998519  0.15264571    -0.86600
O1219       O  0.56679861  0.40077653  0.97349406    -0.88300
O1220       O  0.94405191  0.39156969  0.99842539    -0.87100
O1221       O  0.89505064  0.43273266  0.00426758    -0.86700
O1222       O  0.60756795  0.44907743  0.98346058    -0.88000
O1223       O  0.00224358  0.39010234  0.08075869    -0.86500
O1224       O  0.99695315  0.39431783  0.91562736    -0.86100
Zr1225     Zr  0.00085273  0.42731180  0.99993566     2.84300
O1226       O  0.96076497  0.46010384  0.05849589    -1.08100
O1227       O  0.53556728  0.46280571  0.94471063    -1.08800
C1228       C  0.99431993  0.40234019  0.86600707     1.06600
C1229       C  0.99824239  0.39630851  0.13128502     1.06600
C1230       C  0.59968877  0.41556871  0.97026351     1.09500
C1231       C  0.90868988  0.39961612  0.99912554     1.07300
H1232       H  0.55497741  0.44422973  0.07503978     0.32900
O1233       O  0.53702575  0.45940540  0.05626049    -1.29000
H1234       H  0.94439657  0.44669543  0.92584800     0.32600
O1235       O  0.95978374  0.46289470  0.94727742    -1.30700
O1236       O  0.00310592  0.06692361  0.16165349    -0.86500
O1237       O  0.00020566  0.07376261  0.85451442    -0.88000
O1238       O  0.60288273  0.50163842  0.08541921    -0.86600
O1239       O  0.88482934  0.48764298  0.08776346    -0.86600
O1240       O  0.89396079  0.00751461  0.92282160    -0.86300
O1241       O  0.61051072  0.00229567  0.92342235    -0.86100
O1242       O  0.54733136  0.10264591  0.00713224    -0.86500
O1243       O  0.93609525  0.10948556  0.01741254    -0.86000
O1244       O  0.59754779  0.06328473  0.00694454    -0.87000
O1245       O  0.89400416  0.06280781  0.02034480    -0.86200
O1246       O  0.56132891  0.49237079  0.15448458    -0.86600
O1247       O  0.57044827  0.99763779  0.85190570    -0.86300
O1248       O  0.93591380  0.00393090  0.85271183    -0.85900
O1249       O  0.92673659  0.49360730  0.15667933    -0.86400
O1250       O  0.00098585  0.10895000  0.09317444    -0.86700
O1251       O  0.99639611  0.11504272  0.92534261    -0.88000
Zr1252     Zr  0.99435531  0.49758342  0.11922728     2.83100
Zr1253     Zr  0.00281478  0.00571726  0.88994013     2.83500
Zr1254     Zr  0.56854900  0.50235364  0.00194047     2.84100
Zr1255     Zr  0.91958238  0.49539927  0.00674675     2.83400
Zr1256     Zr  0.99610856  0.07868457  0.00699342     2.84200
O1257       O  0.96219003  0.04178447  0.94759164    -1.08600
O1258       O  0.53268839  0.03311650  0.06130715    -1.08100
C1259       C  0.00351884  0.10073471  0.14270870     1.06600
C1260       C  0.99822489  0.10806220  0.87481254     1.09200
C1261       C  0.59547482  0.49710349  0.13524242     1.06800
C1262       C  0.89240076  0.48959816  0.13755815     1.07100
C1263       C  0.90154828  0.00550769  0.87276956     1.06700
C1264       C  0.60441055  0.00024299  0.87305041     1.06300
C1265       C  0.58239221  0.09600770  0.00817384     1.06700
C1266       C  0.90271432  0.09733973  0.02510219     1.06200
H1267       H  0.54978642  0.05078679  0.92641501     0.32900
O1268       O  0.53484284  0.03357198  0.94630513    -1.29700
H1269       H  0.94589192  0.05491502  0.08717638     0.32900
O1270       O  0.96263029  0.03994920  0.06432339    -1.31000
N1271       N  0.75012322  0.25951733  0.94837705    -0.36600
N1272       N  0.80547933  0.23351688  0.03464051    -0.57200
N1273       N  0.73342008  0.22329341  0.13303527    -0.36600
N1274       N  0.68387195  0.24258097  0.00929893    -0.57200
C1275       C  0.78382863  0.26974142  0.92897432     0.27000
C1276       C  0.72364369  0.27870881  0.92181063     0.27000
C1277       C  0.76281422  0.20045586  0.14368191     0.27000
C1278       C  0.70284675  0.20196092  0.12941361     0.27000
C1279       C  0.80961139  0.26818278  0.01757007     0.35600
C1280       C  0.80128523  0.23699202  0.08762547     0.35600
C1281       C  0.67694581  0.27784620  0.99523675     0.35600
C1282       C  0.67620942  0.24134738  0.06168734     0.35600
C1283       C  0.77854580  0.28759575  0.88102860    -0.21900
C1284       C  0.74021013  0.29424011  0.87725839    -0.21900
C1285       C  0.74875726  0.16688540  0.16113256    -0.21900
C1286       C  0.71025925  0.16803703  0.15242611    -0.21900
C1287       C  0.80810580  0.29377297  0.05957316    -0.22900
C1288       C  0.80153710  0.27369140  0.10459849    -0.22900
C1289       C  0.65961272  0.29711500  0.03736976    -0.22900
C1290       C  0.66128944  0.27434729  0.08047821    -0.22900
C1291       C  0.81421014  0.27649678  0.96379927    -0.18300
C1292       C  0.69172180  0.29390739  0.94857818    -0.18300
C1293       C  0.67610439  0.20839306  0.08947480    -0.18300
C1294       C  0.79860789  0.20609431  0.11962182    -0.18300
H1295       H  0.79986988  0.30118490  0.85756443     0.14600
H1296       H  0.72716952  0.31359558  0.85021961     0.14600
H1297       H  0.76453578  0.14188238  0.16912136     0.14600
H1298       H  0.69171626  0.14441533  0.15318829     0.14600
H1299       H  0.81062625  0.32365675  0.05764680     0.12900
H1300       H  0.79902306  0.28428032  0.14498153     0.12900
H1301       H  0.64887175  0.32527008  0.03871746     0.12900
H1302       H  0.65165814  0.28080474  0.12033955     0.12900
H1303       H  0.74653351  0.24847047  0.98594053     0.26200
H1304       H  0.73502918  0.24964932  0.11655890     0.26200
C1305       C  0.01101047  0.25002010  0.25374865    -0.02500
C1306       C  0.74596583  0.99486075  0.25663868    -0.02500
C1307       C  0.50298853  0.24175073  0.75219902    -0.02500
C1308       C  0.74828541  0.50150614  0.75273801    -0.02500
C1309       C  0.64298186  0.02406115  0.19685644    -0.05800
C1310       C  0.63040309  0.49745047  0.17053255     0.00200
C1311       C  0.64013493  0.46892673  0.20599544    -0.08400
C1312       C  0.67715919  0.46737561  0.22769639    -0.05800
C1313       C  0.70503883  0.49588080  0.22270593     0.00100
C1314       C  0.67867499  0.02957719  0.22161933    -0.08300
C1315       C  0.68507484  0.07015387  0.23792225     0.62000
H1316       H  0.62329207  0.04690956  0.19192938     0.12700
H1317       H  0.68352503  0.44282901  0.24957443     0.12800
C1318       C  0.61150914  0.43971543  0.22079527     0.62300
F1319       F  0.65404999  0.09301532  0.22949574    -0.22900
F1320       F  0.71335449  0.08462881  0.20704239    -0.20200
F1321       F  0.69215727  0.07351338  0.29147091    -0.19900
F1322       F  0.59939110  0.42118212  0.17562381    -0.19900
F1323       F  0.58099875  0.45680129  0.24589140    -0.20300
F1324       F  0.62619869  0.41366553  0.25520964    -0.22900
C1325       C  0.82715079  0.46540056  0.15714969    -0.05800
C1326       C  0.85692709  0.48909690  0.17233501     0.00200
C1327       C  0.85507271  0.00303768  0.22236230    -0.08400
C1328       C  0.81919160  0.99751461  0.24712601    -0.05800
C1329       C  0.78094353  0.49467002  0.22054731     0.00100
C1330       C  0.78929475  0.46893765  0.17719275    -0.08300
C1331       C  0.75899557  0.44690956  0.14796215     0.62000
H1332       H  0.83348483  0.44514383  0.12606063     0.12700
H1333       H  0.81797829  0.00000288  0.28977541     0.12800
C1334       C  0.88724378  0.01877807  0.25435075     0.62300
F1335       F  0.73595017  0.47115068  0.12083081    -0.22900
F1336       F  0.73828050  0.96046653  0.11947491    -0.20200
F1337       F  0.77440324  0.42224514  0.11086111    -0.19900
F1338       F  0.89992283  0.05065934  0.23053467    -0.19900
F1339       F  0.90721458  0.53387102  0.24285782    -0.20300
F1340       F  0.86105200  0.57621617  0.25316416    -0.22900
C1341       C  0.03378214  0.34079777  0.16588790    -0.05800
C1342       C  0.99968485  0.36081785  0.16513851     0.00200
C1343       C  0.47216116  0.33764197  0.18483823    -0.08400
C1344       C  0.47336986  0.30089569  0.20645488    -0.05800
C1345       C  0.00721156  0.28568273  0.21287401     0.00100
C1346       C  0.03691889  0.30291394  0.18200738    -0.08300
C1347       C  0.07043899  0.28258471  0.15762878     0.62000
H1348       H  0.05792237  0.35375033  0.14747798     0.12700
H1349       H  0.44719792  0.29025527  0.22125059     0.12800
C1350       C  0.43583050  0.36007800  0.18619887     0.62300
F1351       F  0.10225678  0.28853948  0.18760294    -0.22900
F1352       F  0.07765484  0.29553158  0.10695107    -0.20200
F1353       F  0.59813081  0.26642088  0.17561537    -0.19900
F1354       F  0.92238990  0.35647171  0.11768357    -0.19900
F1355       F  0.44175842  0.39294126  0.21364564    -0.20300
F1356       F  0.40682485  0.34140664  0.21086751    -0.22900
C1357       C  0.53170691  0.13648727  0.19532360    -0.05800
C1358       C  0.00644788  0.13465135  0.17816020     0.00200
C1359       C  0.97552736  0.15867961  0.18517155    -0.08400
C1360       C  0.98102758  0.19720234  0.19675304    -0.05800
C1361       C  0.01488874  0.21110650  0.21896425     0.00100
C1362       C  0.54000252  0.17282390  0.21579883    -0.08300
C1363       C  0.58175161  0.17515383  0.22955037     0.62000
H1364       H  0.55341751  0.11501318  0.19382046     0.12700
H1365       H  0.95676953  0.21543753  0.19782958     0.12800
C1366       C  0.93727368  0.14089839  0.18882362     0.62300
F1367       F  0.60340658  0.15669083  0.19118776    -0.22900
F1368       F  0.58813105  0.15796663  0.27755042    -0.20200
F1369       F  0.59547471  0.21018327  0.23073917    -0.19900
F1370       F  0.93849090  0.11430333  0.22790686    -0.19900
F1371       F  0.92830130  0.12348083  0.14159396    -0.20300
F1372       F  0.90933303  0.16612975  0.20224307    -0.22900
C1373       C  0.66346741  0.39081708  0.98169484    -0.05800
C1374       C  0.63098670  0.39228091  0.95082624     0.00200
C1375       C  0.62865142  0.36949098  0.90469487    -0.08400
C1376       C  0.65253020  0.33843093  0.90061735    -0.05800
C1377       C  0.68062431  0.33273932  0.93822027     0.00100
C1378       C  0.68960815  0.36191074  0.97453810    -0.08300
C1379       C  0.72343104  0.36172346  0.01083981     0.62000
H1380       H  0.66708270  0.41057812  0.01418922     0.12700
H1381       H  0.64789753  0.31763488  0.86983392     0.12800
C1382       C  0.60339706  0.37762962  0.85813951     0.62300
F1383       F  0.74310372  0.39419424  0.00401313    -0.22900
F1384       F  0.74743262  0.33225820  0.00033617    -0.20200
F1385       F  0.71187144  0.36006922  0.06334948    -0.19900
F1386       F  0.58223363  0.40979137  0.86536933    -0.19900
F1387       F  0.57980818  0.34804906  0.84964626    -0.20300
F1388       F  0.62555358  0.38189972  0.81323991    -0.22900
C1389       C  0.89659954  0.33195204  0.99579318    -0.05800
C1390       C  0.88254060  0.36844554  0.98904825     0.00200
C1391       C  0.84688931  0.37364906  0.96445560    -0.08400
C1392       C  0.82681302  0.34224495  0.94886141    -0.05800
C1393       C  0.84141558  0.30625605  0.95489653     0.00100
C1394       C  0.87826617  0.30107532  0.97400356    -0.08300
C1395       C  0.89819564  0.26324045  0.96877900     0.62000
H1396       H  0.92345415  0.32780882  0.01510069     0.12700
H1397       H  0.79817098  0.34565787  0.93563896     0.12800
C1398       C  0.82884388  0.41161326  0.95588127     0.62300
F1399       F  0.89836623  0.25176674  0.91607724    -0.22900
F1400       F  0.88026019  0.23637800  0.99754693    -0.20200
F1401       F  0.93511627  0.26469558  0.98587337    -0.19900
F1402       F  0.85192321  0.43285278  0.92458288    -0.19900
F1403       F  0.82249832  0.42915313  0.00450886    -0.20300
F1404       F  0.79469200  0.40927528  0.93001484    -0.22900
C1405       C  0.88735060  0.15894483  0.06616845    -0.05800
C1406       C  0.87402208  0.12481107  0.04605914     0.00200
C1407       C  0.83516912  0.11704000  0.05192510    -0.08400
C1408       C  0.81188884  0.14314338  0.07883095    -0.05800
C1409       C  0.82570575  0.17575494  0.10266046     0.00100
C1410       C  0.86468068  0.18360022  0.09655396    -0.08300
C1411       C  0.88308097  0.21760649  0.12231729     0.62000
H1412       H  0.91666986  0.16570217  0.06026828     0.12700
H1413       H  0.78233560  0.13856571  0.07974993     0.12800
C1414       C  0.81780765  0.08193866  0.02910448     0.62300
F1415       F  0.92173793  0.21396919  0.12158984    -0.22900
F1416       F  0.87092717  0.22207246  0.17443544    -0.20200
F1417       F  0.87531418  0.24980348  0.09567311    -0.19900
F1418       F  0.82944943  0.05171263  0.05812242    -0.19900
F1419       F  0.82836434  0.07720583  0.97644534    -0.20300
F1420       F  0.77901775  0.08295227  0.03094263    -0.22900
C1421       C  0.64530872  0.12186772  0.01481243    -0.05800
C1422       C  0.60648201  0.12820686  0.01536432     0.00200
C1423       C  0.59198609  0.16385475  0.03053531    -0.08400
C1424       C  0.61581259  0.18730713  0.05835494    -0.05800
C1425       C  0.65412654  0.17903255  0.06373552     0.00100
C1426       C  0.66979213  0.14816704  0.03533340    -0.08300
C1427       C  0.71120889  0.14011252  0.02865285     0.62000
H1428       H  0.65666610  0.09577584  0.99923017     0.12700
H1429       H  0.60485171  0.21312044  0.07495756     0.12800
C1430       C  0.55233852  0.17797630  0.01851700     0.62300
F1431       F  0.71835512  0.12165234  0.98081765    -0.22900
F1432       F  0.72188350  0.11713204  0.06937952    -0.20200
F1433       F  0.73208089  0.17226906  0.02866453    -0.19900
F1434       F  0.52705928  0.16451101  0.05531464    -0.19900
F1435       F  0.54188940  0.16735685  0.96762747    -0.20300
F1436       F  0.55034525  0.21642260  0.02074335    -0.22900
C1437       C  0.83764286  0.03120759  0.85050522    -0.05800
C1438       C  0.86630969  0.00488434  0.83856864     0.00200
C1439       C  0.84834992  0.47472532  0.80713247    -0.08400
C1440       C  0.81092312  0.47112046  0.78913794    -0.05800
C1441       C  0.79124850  0.00090922  0.79072962     0.00100
C1442       C  0.80036739  0.02963638  0.82958204    -0.08300
C1443       C  0.77180988  0.05852218  0.85172288     0.62000
H1444       H  0.84473490  0.05291633  0.87873960     0.12700
H1445       H  0.80456069  0.44546925  0.76938991     0.12800
C1446       C  0.87838300  0.44685851  0.78896333     0.62300
F1447       F  0.78889286  0.08502328  0.88349810    -0.22900
F1448       F  0.73324953  0.53746445  0.88207684    -0.20200
F1449       F  0.75363249  0.07774148  0.81241065    -0.19900
F1450       F  0.90768749  0.46542453  0.76496823    -0.19900
F1451       F  0.91665479  0.95690340  0.77127437    -0.20300
F1452       F  0.89203378  0.42755968  0.83191026    -0.22900
C1453       C  0.66012389  0.47535308  0.84508339    -0.05800
C1454       C  0.64099513  0.00062826  0.84001165     0.00200
C1455       C  0.65129171  0.03019548  0.80676366    -0.08400
C1456       C  0.68836444  0.03143519  0.78434537    -0.05800
C1457       C  0.71705318  0.00381026  0.79167601     0.00100
C1458       C  0.69805651  0.47545542  0.82551362    -0.08300
C1459       C  0.72524162  0.44739912  0.85054291     0.62000
H1460       H  0.65136769  0.45394429  0.87211994     0.12700
H1461       H  0.69471517  0.05545945  0.76175133     0.12800
C1462       C  0.62354111  0.06150561  0.79633843     0.62300
F1463       F  0.74975032  0.46577902  0.88390161    -0.23300
F1464       F  0.74550403  0.42733345  0.81304837    -0.20200
F1465       F  0.70658341  0.42168520  0.88112910    -0.19900
F1466       F  0.60801305  0.07476472  0.84360890    -0.19900
F1467       F  0.59516701  0.04859653  0.76380143    -0.20300
F1468       F  0.64081821  0.09097524  0.77183220    -0.22900
C1469       C  0.52723602  0.13813153  0.81163487    -0.05800
C1470       C  0.99853357  0.14374705  0.84029914     0.00200
C1471       C  0.96516089  0.16080836  0.82033178    -0.08400
C1472       C  0.96624860  0.19722849  0.79695091    -0.05800
C1473       C  0.50435661  0.20167875  0.78345322     0.00100
C1474       C  0.53287911  0.17124361  0.78179492    -0.08300
C1475       C  0.57115294  0.16982185  0.75335952     0.62000
H1476       H  0.54976334  0.11795790  0.81642806     0.12700
H1477       H  0.93985880  0.20902173  0.78429648     0.12800
C1478       C  0.92777391  0.14133420  0.82669182     0.62300
F1479       F  0.58433529  0.13374950  0.74718795    -0.22900
F1480       F  0.59742345  0.18825980  0.78363603    -0.20200
F1481       F  0.57009868  0.18242803  0.70236129    -0.19900
F1482       F  0.92001228  0.13689477  0.88019627    -0.19900
F1483       F  0.92953746  0.10677919  0.80199829    -0.20300
F1484       F  0.89829367  0.16130270  0.80474818    -0.22900
C1485       C  0.50452236  0.32184948  0.86601215    -0.05800
C1486       C  0.99269206  0.36777294  0.82969385     0.00200
C1487       C  0.97171605  0.33594393  0.84357380    -0.08400
C1488       C  0.97987112  0.30037949  0.82113668    -0.05800
C1489       C  0.50440241  0.27997893  0.78745770     0.00100
C1490       C  0.50871314  0.28523474  0.84376448    -0.08300
C1491       C  0.51935946  0.25456490  0.88271264     0.62000
H1492       H  0.50556548  0.32414520  0.90880963     0.12700
H1493       H  0.96431133  0.27687281  0.83569231     0.12800
C1494       C  0.94102771  0.33780610  0.88408491     0.62300
F1495       F  0.48800190  0.23499266  0.89758431    -0.22900
F1496       F  0.53486424  0.26926860  0.92872489    -0.20200
F1497       F  0.54621899  0.23051536  0.86190598    -0.19900
F1498       F  0.92618539  0.37325770  0.88980677    -0.19900
F1499       F  0.95663506  0.32598000  0.93096104    -0.20300
F1500       F  0.91181598  0.31492455  0.86904102    -0.22900
C1501       C  0.90900195  0.22617950  0.66886265    -0.05800
C1502       C  0.88764425  0.25921449  0.67120277     0.00200
C1503       C  0.90454508  0.29113014  0.69239185    -0.08400
C1504       C  0.94134809  0.28845364  0.71305669    -0.05800
C1505       C  0.96357308  0.25472826  0.71521016     0.00100
C1506       C  0.94639211  0.22314268  0.68842359    -0.08300
C1507       C  0.96512437  0.18563785  0.67630681     0.62000
H1508       H  0.89674779  0.20242038  0.64864794     0.12700
H1509       H  0.95235743  0.31436243  0.72674101     0.12800
C1510       C  0.88332623  0.32822700  0.69371213     0.62300
F1511       F  0.94494291  0.15785742  0.70050171    -0.22900
F1512       F  0.45269556  0.15248877  0.71138828    -0.20200
F1513       F  0.96422888  0.17876849  0.62207493    -0.19900
F1514       F  0.85201200  0.32538360  0.72630501    -0.19900
F1515       F  0.87178731  0.33766951  0.64318313    -0.20300
F1516       F  0.90518893  0.35694707  0.71306442    -0.22900
C1517       C  0.58125335  0.24838678  0.63629747    -0.05800
C1518       C  0.61530084  0.24827168  0.66594452     0.00200
C1519       C  0.61129999  0.25282579  0.72152693    -0.08400
C1520       C  0.57449066  0.25334167  0.74459970    -0.05800
C1521       C  0.54013159  0.24758901  0.71604611     0.00100
C1522       C  0.54429200  0.25063766  0.65899712    -0.08300
C1523       C  0.51290034  0.25793822  0.61877355     0.62000
H1524       H  0.58337559  0.24730448  0.59336313     0.12700
H1525       H  0.57279220  0.25612314  0.78704218     0.12800
C1526       C  0.64550662  0.25477193  0.75732035     0.62300
F1527       F  0.52631703  0.27824337  0.57644824    -0.22900
F1528       F  0.98453281  0.26141059  0.61962061    -0.20200
F1529       F  0.50009544  0.22489298  0.59781736    -0.19900
F1530       F  0.66592521  0.28607414  0.74593555    -0.19900
F1531       F  0.66794354  0.22345529  0.74942871    -0.20300
F1532       F  0.63568282  0.25652582  0.81064806    -0.22900
C1533       C  0.78970943  0.06325542  0.72043099    -0.05800
C1534       C  0.75751953  0.03925320  0.71644526     0.00200
C1535       C  0.72990231  0.05298579  0.67914688    -0.08400
C1536       C  0.73186693  0.09022766  0.65995075    -0.05800
C1537       C  0.76048748  0.11561151  0.67287380     0.00100
C1538       C  0.79093700  0.10073196  0.70199970    -0.08300
C1539       C  0.82484300  0.12468682  0.71427895     0.62000
H1540       H  0.81485200  0.05331184  0.73920064     0.12700
H1541       H  0.71102558  0.09924991  0.63179366     0.12800
C1542       C  0.69786196  0.03075396  0.65527965     0.62300
F1543       F  0.85386466  0.10446462  0.73691280    -0.22900
F1544       F  0.81407582  0.15269494  0.74961183    -0.20200
F1545       F  0.83869734  0.14042056  0.66837531    -0.19900
F1546       F  0.66417331  0.04906957  0.66529230    -0.19900
F1547       F  0.69426781  0.99566545  0.67439326    -0.20300
F1548       F  0.70334209  0.02784057  0.60083126    -0.22900
C1549       C  0.71578111  0.44065612  0.71402074    -0.05800
C1550       C  0.74808794  0.46406260  0.71521541     0.00200
C1551       C  0.77879759  0.45046116  0.68151670    -0.08400
C1552       C  0.77857801  0.41295157  0.66102915    -0.05800
C1553       C  0.74778224  0.38884903  0.66610930     0.00100
C1554       C  0.71474475  0.40504060  0.68862394    -0.08300
C1555       C  0.67741183  0.38598387  0.68122377     0.62000
H1556       H  0.68980281  0.45056700  0.73141516     0.12700
H1557       H  0.80213924  0.40270024  0.63747912     0.12800
C1558       C  0.81066585  0.47468587  0.66110418     0.62300
F1559       F  0.64749652  0.40664262  0.70202475    -0.22900
F1560       F  0.67825960  0.35195600  0.70570296    -0.20200
F1561       F  0.67131105  0.38088912  0.62742652    -0.19900
F1562       F  0.82152987  0.50214012  0.69565054    -0.19900
F1563       F  0.79906095  0.49137809  0.61488011    -0.20300
F1564       F  0.84271006  0.45349148  0.65058955    -0.22900
C1565       C  0.89945250  0.11519026  0.51735282    -0.05800
C1566       C  0.90175917  0.15243436  0.50288589     0.00200
C1567       C  0.93135984  0.16349797  0.46987635    -0.08400
C1568       C  0.94800174  0.13647875  0.43688340    -0.05800
C1569       C  0.94568512  0.09870094  0.44990421     0.00100
C1570       C  0.92388470  0.08850377  0.49512010    -0.08300
C1571       C  0.92399859  0.05083800  0.52111044     0.62000
H1572       H  0.87833295  0.10692528  0.54608188     0.12700
H1573       H  0.96630537  0.14506960  0.40478478     0.12800
C1574       C  0.94951760  0.20116565  0.47594093     0.62300
F1575       F  0.92426098  0.05530322  0.57590867    -0.22900
F1576       F  0.95510602  0.02949671  0.50739987    -0.20200
F1577       F  0.89151572  0.03251534  0.50703713    -0.19900
F1578       F  0.94097436  0.21725833  0.52492730    -0.19900
F1579       F  0.93769589  0.22444185  0.43615790    -0.20300
F1580       F  0.98828177  0.19725825  0.47363599    -0.22900
C1581       C  0.66682236  0.07569009  0.50802309    -0.05800
C1582       C  0.66558254  0.10657899  0.54172143     0.00200
C1583       C  0.64096975  0.10825576  0.58596257    -0.08400
C1584       C  0.61365908  0.08096582  0.59022148    -0.05800
C1585       C  0.61075449  0.05351620  0.55077989     0.00100
C1586       C  0.63899527  0.04893790  0.51136498    -0.08300
C1587       C  0.63702144  0.01902570  0.46871068     0.62000
H1588       H  0.68688102  0.07505681  0.47533924     0.12700
H1589       H  0.59177371  0.08377960  0.62035827     0.12800
C1590       C  0.64041554  0.13986436  0.62628039     0.62300
F1591       F  0.66986454  0.01773824  0.43938082    -0.22900
F1592       F  0.60765805  0.02630450  0.43441780    -0.20200
F1593       F  0.63213687  0.98470547  0.49153122    -0.19900
F1594       F  0.61057070  0.16341978  0.61528719    -0.19900
F1595       F  0.67337095  0.15989216  0.62646449    -0.20300
F1596       F  0.63595955  0.12573984  0.67651679    -0.22900
C1597       C  0.60048058  0.33812053  0.44208245    -0.05800
C1598       C  0.60764010  0.33340048  0.49609646     0.00200
C1599       C  0.58250352  0.34653807  0.53591939    -0.08400
C1600       C  0.55041507  0.36526850  0.51921821    -0.05800
C1601       C  0.54755956  0.37603036  0.46618485     0.00100
C1602       C  0.57201335  0.36191976  0.42623967    -0.08300
C1603       C  0.57332680  0.37813131  0.37054680     0.62000
H1604       H  0.62034705  0.32696848  0.41305460     0.12700
H1605       H  0.53168370  0.37793623  0.54876262     0.12800
C1606       C  0.59086652  0.34750689  0.59497820     0.62300
F1607       F  0.59728696  0.35817453  0.33740788    -0.22900
F1608       F  0.58619338  0.41424194  0.37291255    -0.20200
F1609       F  0.53808678  0.37805020  0.34783144    -0.19900
F1610       F  0.59683281  0.38401951  0.61036656    -0.19900
F1611       F  0.62212598  0.32647343  0.60808170    -0.20300
F1612       F  0.56041425  0.33465545  0.62344119    -0.22900
C1613       C  0.85285727  0.38010190  0.39425768    -0.05800
C1614       C  0.84211682  0.38663828  0.44743378     0.00200
C1615       C  0.84698272  0.42166297  0.47113402    -0.08400
C1616       C  0.86890076  0.44712927  0.44421274    -0.05800
C1617       C  0.88504387  0.43853881  0.39462705     0.00100
C1618       C  0.87357723  0.40659086  0.36652338    -0.08300
C1619       C  0.88718156  0.39924042  0.31010112     0.62000
H1620       H  0.84708369  0.35338617  0.37607412     0.12700
H1621       H  0.88003508  0.46986105  0.46655595     0.12800
C1622       C  0.83270579  0.43063572  0.52659636     0.62300
F1623       F  0.92605956  0.39650408  0.30827529    -0.22900
F1624       F  0.87554158  0.42826261  0.27843514    -0.20200
F1625       F  0.87290128  0.36660324  0.28951049    -0.19900
F1626       F  0.84778429  0.40547110  0.56187458    -0.19900
F1627       F  0.79381861  0.42886139  0.52795416    -0.20300
F1628       F  0.84296098  0.46599596  0.54243039    -0.22900
C1629       C  0.57478243  0.27204987  0.28126451    -0.05800
C1630       C  0.54554031  0.24520855  0.28916076     0.00200
C1631       C  0.55339975  0.21982604  0.33182526    -0.08400
C1632       C  0.58985309  0.21844298  0.35538861    -0.05800
C1633       C  0.61986904  0.24144597  0.34107767     0.00100
C1634       C  0.61166666  0.26964165  0.30411935    -0.08300
C1635       C  0.64218883  0.29652179  0.28766201     0.62000
H1636       H  0.56974193  0.29506656  0.25571903     0.12700
H1637       H  0.59561747  0.19845141  0.38607233     0.12800
C1638       C  0.52398340  0.19475320  0.35595681     0.62300
F1639       F  0.62867752  0.32365914  0.25404523    -0.22900
F1640       F  0.67062512  0.27720523  0.26113939    -0.20200
F1641       F  0.65723107  0.31391269  0.33192062    -0.19900
F1642       F  0.51002323  0.17018882  0.31892196    -0.19900
F1643       F  0.00075975  0.21139072  0.37512706    -0.20300
F1644       F  0.53837170  0.17357110  0.39660876    -0.22900
C1645       C  0.94778225  0.21989323  0.29679290    -0.05800
C1646       C  0.97278486  0.25077510  0.29207453     0.00200
C1647       C  0.96011201  0.28256018  0.32365965    -0.08400
C1648       C  0.92182726  0.28501647  0.34335930    -0.05800
C1649       C  0.89570661  0.25566315  0.33967338     0.00100
C1650       C  0.91061511  0.22179550  0.31907298    -0.08300
C1651       C  0.88713718  0.18710384  0.32221128     0.62000
H1652       H  0.95763290  0.19269911  0.28558330     0.12700
H1653       H  0.91248801  0.30951756  0.36539770     0.12800
C1654       C  0.98738427  0.31200757  0.34327438     0.62300
F1655       F  0.90688660  0.15554822  0.30618962    -0.22900
F1656       F  0.85631215  0.19165588  0.28966793    -0.20200
F1657       F  0.87504938  0.18150159  0.37384457    -0.19900
F1658       F  0.96933107  0.33902278  0.37351160    -0.19900
F1659       F  0.00471204  0.33000321  0.30215104    -0.20300
F1660       F  0.01420248  0.29568449  0.37531985    -0.22900
C1661       C  0.71466376  0.41080623  0.35683909    -0.05800
C1662       C  0.73662619  0.38003775  0.33794793     0.00200
C1663       C  0.76176250  0.38757532  0.29599213    -0.08400
C1664       C  0.76673502  0.42492545  0.27894539    -0.05800
C1665       C  0.74284292  0.45602490  0.29355408     0.00100
C1666       C  0.71670526  0.44783615  0.33626940    -0.08300
C1667       C  0.69113424  0.47725803  0.36265093     0.62000
H1668       H  0.69564652  0.40551721  0.38955404     0.12700
H1669       H  0.79009710  0.42890665  0.25284818     0.12800
C1670       C  0.78241005  0.35595338  0.26742856     0.62300
F1671       F  0.66627472  0.46187051  0.39859927    -0.22900
F1672       F  0.66961088  0.49558023  0.32582347    -0.20200
F1673       F  0.71246338  0.50263598  0.39044659    -0.19900
F1674       F  0.75629683  0.33165206  0.24650184    -0.19900
F1675       F  0.80530199  0.33706958  0.30223387    -0.20300
F1676       F  0.80450345  0.36831938  0.22589235    -0.22900
C1677       C  0.75271779  0.07192295  0.37475695    -0.05800
C1678       C  0.76298811  0.10457523  0.34701237     0.00200
C1679       C  0.77544631  0.09815366  0.29408777    -0.08400
C1680       C  0.76775167  0.06363439  0.26817428    -0.05800
C1681       C  0.75368174  0.03134452  0.29403710     0.00100
C1682       C  0.75391907  0.03527310  0.35136203    -0.08300
C1683       C  0.76429609  0.00427212  0.38984131     0.62000
H1684       H  0.74754979  0.07434259  0.41717403     0.12700
H1685       H  0.77428243  0.06153061  0.22624014     0.12800
C1686       C  0.80335318  0.12383559  0.26867276     0.62300
F1687       F  0.78649215  0.01822451  0.43043193    -0.22900
F1688       F  0.78530111  0.97620995  0.36601215    -0.20200
F1689       F  0.73270941  0.98960567  0.41303365    -0.19900
F1690       F  0.83541956  0.12348539  0.29937898    -0.19900
F1691       F  0.78897737  0.15952031  0.26583824    -0.20300
F1692       F  0.81371066  0.11215898  0.21790896    -0.22900
O1693       O  0.75457400  0.67699576  0.35436038    -0.86500
O1694       O  0.75381303  0.68196803  0.65380239    -0.86600
O1695       O  0.83016926  0.65615798  0.50427202    -0.88300
O1696       O  0.71470330  0.63719374  0.51592554    -0.87100
O1697       O  0.66130663  0.67326043  0.51344628    -0.86700
O1698       O  0.86825646  0.70638229  0.50140216    -0.88000
O1699       O  0.76645636  0.64105585  0.58459485    -0.86500
O1700       O  0.76572361  0.63877397  0.42507944    -0.86100
Zr1701     Zr  0.76644094  0.67700311  0.50487851     2.84300
O1702       O  0.72336389  0.70729328  0.56073689    -1.08100
O1703       O  0.79760557  0.71739787  0.44865906    -1.08800
C1704       C  0.75885449  0.64375406  0.37550297     1.06600
C1705       C  0.75913106  0.64804429  0.63380380     1.06600
C1706       C  0.86257870  0.67125857  0.50146924     1.09500
C1707       C  0.67916763  0.64231485  0.51779238     1.07300
H1708       H  0.81343331  0.70437186  0.58243765     0.32900
O1709       O  0.79583746  0.71873834  0.56194129    -1.29000
H1710       H  0.70871237  0.68597438  0.42851195     0.32600
O1711       O  0.72307675  0.70434787  0.44760756    -1.30700
O1712       O  0.75068113  0.81841669  0.65307985    -0.86500
O1713       O  0.74679845  0.81049870  0.34943735    -0.88000
O1714       O  0.86000036  0.75837638  0.59164727    -0.86600
O1715       O  0.64608810  0.73261901  0.58626103    -0.86600
O1716       O  0.64627361  0.73256411  0.42194237    -0.86300
O1717       O  0.86239144  0.76094383  0.42271319    -0.86100
O1718       O  0.79301263  0.86035746  0.49756346    -0.86500
O1719       O  0.67683264  0.83967749  0.50238471    -0.86000
O1720       O  0.84707187  0.82501454  0.49934162    -0.87000
O1721       O  0.64053375  0.78767677  0.49891621    -0.86200
O1722       O  0.81679951  0.74997765  0.65926325    -0.86600
O1723       O  0.82198620  0.74834483  0.35338536    -0.86300
O1724       O  0.68718939  0.74297486  0.35268570    -0.85900
O1725       O  0.68475603  0.74329165  0.65717947    -0.86400
O1726       O  0.74370830  0.85774828  0.58230244    -0.86700
O1727       O  0.73649664  0.85215100  0.41828791    -0.88000
Zr1728     Zr  0.75180078  0.74968848  0.61953357     2.83100
Zr1729     Zr  0.75423289  0.74515891  0.38901133     2.83500
Zr1730     Zr  0.82732415  0.76019132  0.50602838     2.84100
Zr1731     Zr  0.68144174  0.73603690  0.50414347     2.83400
Zr1732     Zr  0.74131635  0.81948165  0.50246592     2.84200
O1733       O  0.71159189  0.77678822  0.44695843    -1.08600
O1734       O  0.78330038  0.79089870  0.56112659    -1.08100
C1735       C  0.74830574  0.85202795  0.63226220     1.06600
C1736       C  0.74051456  0.84449706  0.36820365     1.09200
C1737       C  0.85125033  0.75302192  0.64100366     1.06800
C1738       C  0.65134587  0.73696060  0.63654352     1.07100
C1739       C  0.65319322  0.73790337  0.37225058     1.06700
C1740       C  0.85571909  0.75473037  0.37300014     1.06300
C1741       C  0.82867662  0.85597097  0.49444500     1.06700
C1742       C  0.64536381  0.82263277  0.50096723     1.06200
H1743       H  0.79785414  0.80530631  0.42570458     0.32900
O1744       O  0.78453274  0.78784508  0.44735805    -1.29700
H1745       H  0.69165635  0.79366783  0.58075020     0.32900
O1746       O  0.70998105  0.77973588  0.56039441    -1.31000
N1747       N  0.47879039  0.94768716  0.46601348    -0.36600
N1748       N  0.54104718  0.47753761  0.47384796    -0.57200
N1749       N  0.00451057  0.55327920  0.46773603    -0.36600
N1750       N  0.92242590  0.51525729  0.37728566    -0.57200
C1751       C  0.49243755  0.91915654  0.49367247     0.27000
C1752       C  0.94769724  0.93364650  0.42724202     0.27000
C1753       C  0.54165082  0.55807598  0.47571636     0.27000
C1754       C  0.99711078  0.56739654  0.42014191     0.27000
C1755       C  0.53713789  0.95140494  0.55495495     0.35600
C1756       C  0.57124008  0.49727779  0.48824225     0.35600
C1757       C  0.93119773  0.98943957  0.38170170     0.35600
C1758       C  0.95097995  0.53833991  0.36611337     0.35600
C1759       C  0.47725711  0.88598202  0.47539523    -0.21900
C1760       C  0.94342302  0.89616200  0.43709311    -0.21900
C1761       C  0.53601027  0.59391540  0.49427167    -0.21900
C1762       C  0.02737647  0.58682201  0.40087221    -0.21900
C1763       C  0.56749469  0.94905153  0.58963335    -0.22900
C1764       C  0.60212265  0.47488961  0.49839657    -0.22900
C1765       C  0.96267029  0.98914689  0.34867004    -0.22900
C1766       C  0.97816677  0.51943874  0.33576627    -0.22900
C1767       C  0.52392317  0.92076970  0.52581835    -0.18300
C1768       C  0.92011276  0.95666964  0.40626649    -0.18300
C1769       C  0.96095207  0.56786470  0.40049294    -0.18300
C1770       C  0.57149399  0.53555685  0.49079174    -0.18300
H1771       H  0.48355723  0.85822657  0.48911209     0.14600
H1772       H  0.92169163  0.87809958  0.42222414     0.14600
H1773       H  0.55175364  0.60898367  0.52407077     0.14600
H1774       H  0.02871750  0.60270585  0.36472014     0.14600
H1775       H  0.57944324  0.92434900  0.60718831     0.12900
H1776       H  0.63010080  0.48316082  0.51022540     0.12900
H1777       H  0.97501170  0.96518004  0.32831274     0.12900
H1778       H  0.00558349  0.52958969  0.32432632     0.12900
H1779       H  0.98147340  0.97559447  0.46099574     0.26200
H1780       H  0.98533665  0.54115463  0.49336084     0.26200
O1781       O  0.00399459  0.93499286  0.85656607    -0.86500
O1782       O  0.99722162  0.93474097  0.15705603    -0.86600
O1783       O  0.56786244  0.90056694  0.97547189    -0.88300
O1784       O  0.94871681  0.90076236  0.99481353    -0.87100
O1785       O  0.90169719  0.94398383  0.99169910    -0.86700
O1786       O  0.61072745  0.94697575  0.98569791    -0.88000
O1787       O  0.00527570  0.89501988  0.08561827    -0.86500
O1788       O  0.00562548  0.89594122  0.92762184    -0.86100
Zr1789     Zr  0.00690895  0.93304879  0.00572593     2.84300
O1790       O  0.96498970  0.96629118  0.06050395    -1.08100
O1791       O  0.53896000  0.96216131  0.94788916    -1.08800
C1792       C  0.00491375  0.90099557  0.87774068     1.06600
C1793       C  0.00001693  0.90093256  0.13592494     1.06600
C1794       C  0.60116408  0.91433575  0.97117655     1.09500
C1795       C  0.91443844  0.91074783  0.98652136     1.07300
H1796       H  0.55656562  0.94331279  0.07769324     0.32900
O1797       O  0.53971809  0.95933596  0.05853173    -1.29000
H1798       H  0.95393228  0.95308738  0.92719250     0.32600
O1799       O  0.96870544  0.96904449  0.94973756    -1.30700
O1800       O  0.99594745  0.56428919  0.15932342    -0.86500
O1801       O  0.99047702  0.57063601  0.85602967    -0.88000
O1802       O  0.60716955  0.99500252  0.08777476    -0.86600
O1803       O  0.89141720  0.99789551  0.08452661    -0.86600
O1804       O  0.88489842  0.50122188  0.92538464    -0.86300
O1805       O  0.60432488  0.50711856  0.91974435    -0.86100
O1806       O  0.53629978  0.60446819  0.99910875    -0.86500
O1807       O  0.92529181  0.59903358  0.00885101    -0.86000
O1808       O  0.58806276  0.56709246  0.00512168    -0.87000
O1809       O  0.88309563  0.55328794  0.02069234    -0.86200
O1810       O  0.56367171  0.99131502  0.15588665    -0.86600
O1811       O  0.56359641  0.49973345  0.84942406    -0.86300
O1812       O  0.92632539  0.50374008  0.85462902    -0.85900
O1813       O  0.93094170  0.00031523  0.15598256    -0.86400
O1814       O  0.98846308  0.60566242  0.09115970    -0.86700
O1815       O  0.98226060  0.60996506  0.92799710    -0.88000
Zr1816     Zr  0.99987760  0.00201605  0.12132931     2.83100
Zr1817     Zr  0.99344398  0.50276806  0.88918415     2.83500
Zr1818     Zr  0.57343696  0.00056507  0.00437365     2.84100
Zr1819     Zr  0.92824070  0.00415842  0.00503186     2.83400
Zr1820     Zr  0.98610023  0.57200484  0.00709919     2.84200
O1821       O  0.95211299  0.53464144  0.94951013    -1.08600
O1822       O  0.52607255  0.53209047  0.05921886    -1.08100
C1823       C  0.99317227  0.59840611  0.14066476     1.06600
C1824       C  0.98574002  0.60418446  0.87755269     1.09200
C1825       C  0.59827740  0.99194175  0.13732058     1.06800
C1826       C  0.89692996  0.99826172  0.13494733     1.07100
C1827       C  0.89227770  0.50338777  0.87541618     1.06700
C1828       C  0.59756114  0.50412686  0.86954025     1.06300
C1829       C  0.57145946  0.59914616  0.00215380     1.06700
C1830       C  0.89210164  0.58788207  0.01895079     1.06200
H1831       H  0.54204025  0.55215498  0.92584051     0.32900
O1832       O  0.52778377  0.53438190  0.94593365    -1.29700
H1833       H  0.93671834  0.54800663  0.08769305     0.32900
O1834       O  0.95350283  0.53326661  0.06485749    -1.31000
N1835       N  0.76046259  0.77650802  0.89148110    -0.36600
N1836       N  0.80883985  0.74521433  0.98498604    -0.57200
N1837       N  0.73070932  0.73521040  0.05802778    -0.36600
N1838       N  0.69448536  0.76144222  0.95930393    -0.57200
C1839       C  0.79457773  0.79047311  0.88091779     0.27000
C1840       C  0.73545929  0.80041607  0.87006202     0.27000
C1841       C  0.75681272  0.71435823  0.08315296     0.27000
C1842       C  0.69827535  0.71693085  0.06148165     0.27000
C1843       C  0.81613739  0.78073109  0.97298965     0.35600
C1844       C  0.80540718  0.74554450  0.03857663     0.35600
C1845       C  0.67960542  0.78083635  0.91911935     0.35600
C1846       C  0.66521159  0.74874834  0.98729440     0.35600
C1847       C  0.79126093  0.81678326  0.84105039    -0.21900
C1848       C  0.75362612  0.82474247  0.83700705    -0.21900
C1849       C  0.73935105  0.68685902  0.11189611    -0.21900
C1850       C  0.70197822  0.68816044  0.09752030    -0.21900
C1851       C  0.81759023  0.80274914  0.01914660    -0.22900
C1852       C  0.80880493  0.78050597  0.06051596    -0.22900
C1853       C  0.64074449  0.78121852  0.92207509    -0.22900
C1854       C  0.63150022  0.76002625  0.96449027    -0.22900
C1855       C  0.82190983  0.79396451  0.92103229    -0.18300
C1856       C  0.69972504  0.80733168  0.89166978    -0.18300
C1857       C  0.66860773  0.72095506  0.02530309    -0.18300
C1858       C  0.79488583  0.71496663  0.06750722    -0.18300
H1859       H  0.81305674  0.83496827  0.82678160     0.14600
H1860       H  0.74180248  0.84930891  0.81902322     0.14600
H1861       H  0.75272259  0.66528709  0.13495820     0.14600
H1862       H  0.68107226  0.66771588  0.10755219     0.14600
H1863       H  0.82248371  0.83219863  0.02298256     0.12900
H1864       H  0.80604896  0.78861239  0.10199144     0.12900
H1865       H  0.62124172  0.79625111  0.89717743     0.12900
H1866       H  0.60308249  0.75428441  0.97711846     0.12900
H1867       H  0.75509677  0.75771066  0.92151310     0.26200
H1868       H  0.73611319  0.75709500  0.03257934     0.26200
C1869       C  0.00490087  0.75016877  0.25080783    -0.02500
C1870       C  0.74335033  0.49452249  0.25885173    -0.02500
C1871       C  0.49814244  0.74153792  0.75210645    -0.02500
C1872       C  0.75435699  0.00184609  0.75323579    -0.02500
C1873       C  0.65836651  0.52380448  0.16008882    -0.05800
C1874       C  0.63157679  0.99060883  0.17427851     0.00200
C1875       C  0.65676270  0.96004479  0.17740031    -0.08400
C1876       C  0.69246383  0.96460365  0.20150310    -0.05800
C1877       C  0.70591445  0.99837467  0.22493111     0.00100
C1878       C  0.69438454  0.52444776  0.18509914    -0.08300
C1879       C  0.71840525  0.55661757  0.16666798     0.62000
H1880       H  0.65174932  0.54495135  0.13114801     0.12700
H1881       H  0.71027927  0.94005387  0.20206451     0.12800
C1882       C  0.64711677  0.92118072  0.15808243     0.62300
F1883       F  0.72728834  0.55090418  0.11365598    -0.22900
F1884       F  0.75120552  0.56133515  0.19390162    -0.20200
F1885       F  0.69802776  0.58957972  0.17164937    -0.19900
F1886       F  0.67287434  0.90960421  0.11968263    -0.19900
F1887       F  0.61143501  0.91882345  0.13690692    -0.20300
F1888       F  0.64915312  0.89716098  0.20049371    -0.22900
C1889       C  0.82565471  0.98981481  0.13925786    -0.05800
C1890       C  0.85959993  0.99614962  0.16735708     0.00200
C1891       C  0.84740638  0.51836605  0.20783350    -0.08400
C1892       C  0.81046100  0.52091408  0.22967977    -0.05800
C1893       C  0.78415399  0.99332412  0.21938972     0.00100
C1894       C  0.78859146  0.99215292  0.16201274    -0.08300
C1895       C  0.75660439  0.99392077  0.12180148     0.62000
H1896       H  0.82805503  0.98424389  0.09711756     0.12700
H1897       H  0.80461037  0.54588145  0.25172074     0.12800
C1898       C  0.87550913  0.54884046  0.21930555     0.62300
F1899       F  0.73215754  0.02295045  0.13367852    -0.22900
F1900       F  0.73734499  0.42619958  0.18170274    -0.20200
F1901       F  0.76947817  0.00035841  0.07067587    -0.19900
F1902       F  0.88552839  0.56533635  0.17204031    -0.19900
F1903       F  0.91628446  0.99298403  0.25629443    -0.20300
F1904       F  0.87634525  0.02826301  0.30578618    -0.22900
C1905       C  0.03096915  0.84102755  0.16446525    -0.05800
C1906       C  0.99941217  0.86471386  0.16901283     0.00200
C1907       C  0.51441273  0.85180275  0.21842384    -0.08400
C1908       C  0.51274700  0.81608319  0.24306212    -0.05800
C1909       C  0.00154974  0.78703654  0.21130499     0.00100
C1910       C  0.03104913  0.80251636  0.17832030    -0.08300
C1911       C  0.06207432  0.78040013  0.15117385     0.62000
H1912       H  0.05537506  0.85200553  0.14410479     0.12700
H1913       H  0.52405840  0.81474666  0.28200796     0.12800
C1914       C  0.53219326  0.88412876  0.24789504     0.62300
F1915       F  0.06720461  0.79302051  0.09981477    -0.22900
F1916       F  0.05326680  0.74362757  0.14606882    -0.20200
F1917       F  0.48028739  0.73024363  0.12174962    -0.19900
F1918       F  0.93370110  0.90281676  0.21698556    -0.19900
F1919       F  0.56160368  0.89780124  0.21800705    -0.20300
F1920       F  0.54649008  0.87381847  0.29665996    -0.22900
C1921       C  0.53496711  0.64510850  0.17718383    -0.05800
C1922       C  0.99612940  0.63385448  0.17537442     0.00200
C1923       C  0.96677899  0.66086880  0.17700175    -0.08400
C1924       C  0.97416661  0.69917811  0.18940265    -0.05800
C1925       C  0.00753863  0.71105772  0.21563399     0.00100
C1926       C  0.53762397  0.68330720  0.19559420    -0.08300
C1927       C  0.57545230  0.70117636  0.18506985     0.62000
H1928       H  0.55983498  0.63056702  0.16226181     0.12700
H1929       H  0.95106494  0.71898841  0.18734696     0.12800
C1930       C  0.92677254  0.64710900  0.17483504     0.62300
F1931       F  0.59466448  0.68327496  0.14398596    -0.22900
F1932       F  0.59815290  0.69848843  0.22915136    -0.20200
F1933       F  0.57061456  0.73759919  0.16983297    -0.19900
F1934       F  0.92175675  0.62241900  0.21565302    -0.19900
F1935       F  0.92034380  0.62862035  0.12763433    -0.20300
F1936       F  0.90046268  0.67548164  0.18109510    -0.22900
C1937       C  0.66119728  0.88242410  0.97716292    -0.05800
C1938       C  0.63078431  0.89218085  0.94559771     0.00200
C1939       C  0.63158509  0.88375466  0.89021402    -0.08400
C1940       C  0.66057867  0.86080114  0.87026497    -0.05800
C1941       C  0.68745002  0.84573838  0.90413198     0.00100
C1942       C  0.68985399  0.85935908  0.95747598    -0.08300
C1943       C  0.71972981  0.84804601  0.99690956     0.62000
H1944       H  0.66161135  0.89140659  0.01850978     0.12700
H1945       H  0.65955159  0.85088369  0.82952295     0.12800
C1946       C  0.60253157  0.89690974  0.85073262     0.62300
F1947       F  0.74759632  0.82648581  0.97399934    -0.22900
F1948       F  0.70337559  0.82843293  0.03775384    -0.20200
F1949       F  0.73627845  0.87947718  0.01813675    -0.19900
F1950       F  0.57533334  0.91936981  0.87347007    -0.19900
F1951       F  0.58564707  0.86644128  0.82729195    -0.20300
F1952       F  0.61959561  0.91737050  0.81175631    -0.22900
C1953       C  0.90636661  0.84904769  0.94557414    -0.05800
C1954       C  0.88932620  0.88256955  0.96385971     0.00200
C1955       C  0.85023922  0.88910105  0.95468731    -0.08400
C1956       C  0.82999141  0.86081269  0.93024553    -0.05800
C1957       C  0.84662954  0.82602949  0.91937455     0.00100
C1958       C  0.88534548  0.82040277  0.92384370    -0.08300
C1959       C  0.90343710  0.78384240  0.90613638     0.62000
H1960       H  0.93620267  0.84480522  0.94917566     0.12700
H1961       H  0.79981918  0.86375222  0.92589353     0.12800
C1962       C  0.82871336  0.92389556  0.97329465     0.62300
F1963       F  0.89396071  0.77668453  0.85385586    -0.22900
F1964       F  0.89064911  0.75513199  0.93692479    -0.20200
F1965       F  0.94216094  0.78449100  0.90998993    -0.19900
F1966       F  0.84051842  0.95440543  0.94527191    -0.19900
F1967       F  0.83417871  0.92959765  0.02719201    -0.20300
F1968       F  0.79034083  0.92105206  0.96539080    -0.22900
C1969       C  0.88038050  0.65371753  0.04253144    -0.05800
C1970       C  0.86478139  0.61837159  0.03264988     0.00200
C1971       C  0.82549728  0.61410804  0.03893177    -0.08400
C1972       C  0.80347393  0.64596191  0.05087989    -0.05800
C1973       C  0.81941439  0.68098966  0.06205076     0.00100
C1974       C  0.85922572  0.68400699  0.06111519    -0.08300
C1975       C  0.88044197  0.71861617  0.07934386     0.62000
H1976       H  0.91033523  0.65779278  0.03784570     0.12700
H1977       H  0.77349462  0.64329124  0.05027450     0.12800
C1978       C  0.80646595  0.57681564  0.03203073     0.62300
F1979       F  0.91742639  0.71032931  0.09204848    -0.22900
F1980       F  0.86350792  0.73424941  0.12417420    -0.20200
F1981       F  0.88172668  0.74435835  0.03938114    -0.19900
F1982       F  0.81915020  0.55250139  0.07030194    -0.19900
F1983       F  0.81430565  0.56226711  0.98206264    -0.20300
F1984       F  0.76776334  0.57984635  0.03715496    -0.22900
C1985       C  0.63112056  0.62842963  0.98352612    -0.05800
C1986       C  0.59417125  0.63235271  0.00231824     0.00200
C1987       C  0.58053388  0.66763217  0.02116463    -0.08400
C1988       C  0.60708065  0.69412311  0.03362663    -0.05800
C1989       C  0.64413723  0.68956433  0.01710011     0.00100
C1990       C  0.65590069  0.65785218  0.98700841    -0.08300
C1991       C  0.69343075  0.65516509  0.95757727     0.62000
H1992       H  0.64013574  0.60244572  0.96492398     0.12700
H1993       H  0.59885907  0.71973086  0.05401116     0.12800
C1994       C  0.53917579  0.67884035  0.02683664     0.62300
F1995       F  0.72267263  0.65606188  0.99303480    -0.22900
F1996       F  0.69678135  0.68442943  0.92299405    -0.20200
F1997       F  0.69688924  0.62252825  0.92793471    -0.19900
F1998       F  0.52263605  0.65945387  0.06712520    -0.19900
F1999       F  0.52047843  0.67221359  0.97960769    -0.20300
F2000       F  0.53460800  0.71632602  0.03880181    -0.22900
C2001       C  0.82802595  0.52947906  0.85593705    -0.05800
C2002       C  0.85730296  0.50428372  0.84170490     0.00200
C2003       C  0.85651210  0.97441408  0.80566215    -0.08400
C2004       C  0.81971984  0.97273547  0.78335975    -0.05800
C2005       C  0.78301663  0.49989704  0.79387404     0.00100
C2006       C  0.79104096  0.52796885  0.83396793    -0.08300
C2007       C  0.76159613  0.55585726  0.85595608     0.62000
H2008       H  0.83458643  0.55047006  0.88550829     0.12700
H2009       H  0.81372551  0.94870099  0.75924366     0.12800
C2010       C  0.88476157  0.94303971  0.79537567     0.62300
F2011       F  0.77694600  0.58039647  0.89241485    -0.22900
F2012       F  0.74519625  0.04149446  0.88288523    -0.20200
F2013       F  0.74600012  0.57718147  0.81662154    -0.19900
F2014       F  0.89468526  0.92690174  0.84297827    -0.19900
F2015       F  0.86466497  0.42145768  0.75231928    -0.20300
F2016       F  0.87046392  0.91559461  0.76238700    -0.22900
C2017       C  0.67058996  0.97619865  0.85442735    -0.05800
C2018       C  0.63341828  0.50363567  0.83528259     0.00200
C2019       C  0.64636827  0.53431704  0.80577810    -0.08400
C2020       C  0.68297718  0.53314793  0.78168544    -0.05800
C2021       C  0.70958136  0.50338550  0.78769543     0.00100
C2022       C  0.70818109  0.97753249  0.83321190    -0.08300
C2023       C  0.73745030  0.95150553  0.85830469     0.62000
H2024       H  0.66405541  0.95639931  0.88494255     0.12700
H2025       H  0.69085909  0.55672778  0.75860002     0.12800
C2026       C  0.62228574  0.56925633  0.80203340     0.62300
F2027       F  0.76272291  0.97182752  0.88784127    -0.23300
F2028       F  0.75697999  0.93052453  0.82097024    -0.20200
F2029       F  0.72098472  0.92666790  0.89259382    -0.19900
F2030       F  0.61468089  0.58316049  0.85258960    -0.19900
F2031       F  0.58881292  0.56106960  0.77700440    -0.20300
F2032       F  0.64005087  0.59680951  0.77367030    -0.22900
C2033       C  0.52253520  0.64147533  0.81414353    -0.05800
C2034       C  0.98746318  0.64011944  0.84457299     0.00200
C2035       C  0.96153498  0.67060629  0.84974245    -0.08400
C2036       C  0.96895929  0.70563323  0.82485067    -0.05800
C2037       C  0.49953750  0.70569951  0.79219011     0.00100
C2038       C  0.53016019  0.67895257  0.79901497    -0.08300
C2039       C  0.57033878  0.69049826  0.81100367     0.62000
H2040       H  0.54560076  0.62150237  0.81535543     0.12700
H2041       H  0.94789986  0.72741364  0.82854675     0.12800
C2042       C  0.92477546  0.66559671  0.87968611     0.62300
F2043       F  0.58683958  0.66752468  0.84836572    -0.22900
F2044       F  0.57106161  0.72567973  0.83335966    -0.20200
F2045       F  0.59217095  0.68798352  0.76557458    -0.19900
F2046       F  0.93155808  0.66426108  0.93364942    -0.19900
F2047       F  0.90794497  0.63294098  0.86329207    -0.20300
F2048       F  0.89961558  0.69441948  0.87072856    -0.22900
C2049       C  0.49750939  0.85170369  0.78862022    -0.05800
C2050       C  0.00503866  0.86312197  0.84633200     0.00200
C2051       C  0.01190958  0.82705298  0.87035857    -0.08400
C2052       C  0.00721639  0.79335519  0.84025377    -0.05800
C2053       C  0.49975718  0.78167960  0.78281212     0.00100
C2054       C  0.49684348  0.81811340  0.75774909    -0.08300
C2055       C  0.48952436  0.82538969  0.69936872     0.62000
H2056       H  0.49292519  0.87808724  0.76923276     0.12700
H2057       H  0.01076854  0.76718662  0.86000098     0.12800
C2058       C  0.02674484  0.82228747  0.92709710     0.62300
F2059       F  0.51455245  0.85155842  0.68132578    -0.22900
F2060       F  0.45353797  0.83992767  0.69384486    -0.20200
F2061       F  0.49306575  0.79458799  0.66725891    -0.19900
F2062       F  0.99968892  0.83191290  0.96452332    -0.19900
F2063       F  0.05814964  0.84374965  0.93485360    -0.20300
F2064       F  0.03759626  0.78596889  0.93719881    -0.22900
C2065       C  0.90947543  0.71865248  0.67016143    -0.05800
C2066       C  0.88445765  0.74883615  0.67781301     0.00200
C2067       C  0.89367196  0.77553839  0.71670729    -0.08400
C2068       C  0.92903487  0.77314650  0.74239938    -0.05800
C2069       C  0.95834266  0.74694887  0.72800889     0.00100
C2070       C  0.94529725  0.71609262  0.69548982    -0.08300
C2071       C  0.96604347  0.67916560  0.68702668     0.62000
H2072       H  0.90072694  0.69670167  0.64316741     0.12700
H2073       H  0.93360944  0.79341496  0.77334242     0.12800
C2074       C  0.86648235  0.80728675  0.72968731     0.62300
F2075       F  0.95235902  0.65379202  0.72283855    -0.22900
F2076       F  0.49327668  0.66771773  0.70131617    -0.20200
F2077       F  0.95991354  0.66520630  0.63623900    -0.19900
F2078       F  0.87930821  0.82996767  0.77046977    -0.19900
F2079       F  0.83221108  0.79305004  0.74504315    -0.20300
F2080       F  0.86139538  0.82885695  0.68516525    -0.22900
C2081       C  0.58259984  0.71910575  0.64540959    -0.05800
C2082       C  0.61428380  0.73585363  0.66923402     0.00200
C2083       C  0.60669404  0.75656231  0.71623481    -0.08400
C2084       C  0.56925455  0.75886210  0.73716176    -0.05800
C2085       C  0.53648035  0.74154239  0.71463685     0.00100
C2086       C  0.54442896  0.72528738  0.66232308    -0.08300
C2087       C  0.51729676  0.71901206  0.61623523     0.62000
H2088       H  0.58724263  0.70414958  0.60816400     0.12700
H2089       H  0.56644219  0.77432668  0.77373769     0.12800
C2090       C  0.63808621  0.77604997  0.74514574     0.62300
F2091       F  0.53079716  0.73617393  0.57119122    -0.22900
F2092       F  0.97705999  0.76295554  0.63120536    -0.20200
F2093       F  0.51545942  0.68149209  0.60438152    -0.19900
F2094       F  0.65544250  0.79958278  0.71048418    -0.19900
F2095       F  0.66386594  0.75015273  0.76332736    -0.20300
F2096       F  0.62522406  0.79701824  0.78818499    -0.22900
C2097       C  0.78261047  0.56450705  0.72430772    -0.05800
C2098       C  0.75280487  0.53835320  0.71550883     0.00200
C2099       C  0.72840206  0.54853306  0.67206309    -0.08400
C2100       C  0.73005693  0.58528759  0.65055645    -0.05800
C2101       C  0.75610900  0.61262573  0.66667803     0.00100
C2102       C  0.78481256  0.60034434  0.70092816    -0.08300
C2103       C  0.81902986  0.62447049  0.71046913     0.62000
H2104       H  0.80567728  0.55721817  0.74941437     0.12700
H2105       H  0.71196101  0.59256929  0.61791667     0.12800
C2106       C  0.70228134  0.52091114  0.64450076     0.62300
F2107       F  0.84647168  0.60638236  0.73959649    -0.22900
F2108       F  0.80817424  0.65640919  0.73792618    -0.20200
F2109       F  0.83504804  0.63414848  0.66234945    -0.19900
F2110       F  0.68261580  0.53680881  0.60330135    -0.19900
F2111       F  0.67602493  0.50717567  0.67934431    -0.20300
F2112       F  0.72292523  0.49200326  0.62200113    -0.22900
C2113       C  0.72379272  0.93637819  0.72575390    -0.05800
C2114       C  0.75234976  0.96361776  0.71638323     0.00200
C2115       C  0.77714019  0.95330156  0.67242506    -0.08400
C2116       C  0.77543038  0.91663277  0.64884084    -0.05800
C2117       C  0.75090024  0.88839368  0.66550808     0.00100
C2118       C  0.72322129  0.89992049  0.70258950    -0.08300
C2119       C  0.69134407  0.87412587  0.71455606     0.62000
H2120       H  0.70004317  0.94348373  0.75029704     0.12700
H2121       H  0.79179387  0.91025384  0.61383255     0.12800
C2122       C  0.80343328  0.98075164  0.64576338     0.62300
F2123       F  0.70573024  0.84281861  0.73844738    -0.22900
F2124       F  0.67339598  0.86442920  0.66787382    -0.20200
F2125       F  0.66490287  0.89017454  0.74798772    -0.19900
F2126       F  0.82809894  0.99620112  0.68153776    -0.19900
F2127       F  0.78270796  0.00839238  0.62183489    -0.20300
F2128       F  0.82502598  0.96405427  0.60607469    -0.22900
C2129       C  0.88703287  0.60761829  0.49789928    -0.05800
C2130       C  0.89431287  0.64542325  0.49252372     0.00200
C2131       C  0.92750764  0.65612900  0.46667848    -0.08400
C2132       C  0.94516445  0.63007027  0.43288206    -0.05800
C2133       C  0.93539960  0.59209166  0.43304781     0.00100
C2134       C  0.90894165  0.58041234  0.47216689    -0.08300
C2135       C  0.90049080  0.54131346  0.48895376     0.62000
H2136       H  0.86330584  0.59912538  0.52210366     0.12700
H2137       H  0.96819779  0.63917637  0.40795584     0.12800
C2138       C  0.94534901  0.69365169  0.47592578     0.62300
F2139       F  0.89612310  0.54019699  0.54374043    -0.22900
F2140       F  0.92844792  0.51598124  0.47618808    -0.20200
F2141       F  0.86684293  0.53144769  0.46575503    -0.19900
F2142       F  0.93745502  0.70708351  0.52668199    -0.19900
F2143       F  0.93228174  0.71858681  0.43892954    -0.20300
F2144       F  0.98411855  0.69060033  0.47178849    -0.22900
C2145       C  0.65576142  0.59181716  0.46829786    -0.05800
C2146       C  0.65752771  0.60945812  0.51785914     0.00200
C2147       C  0.63581035  0.59794657  0.56166102    -0.08400
C2148       C  0.61143350  0.56852863  0.55313001    -0.05800
C2149       C  0.60632589  0.55425875  0.50169416     0.00100
C2150       C  0.62899687  0.56513896  0.45852877    -0.08300
C2151       C  0.62077969  0.55421730  0.40111777     0.62000
H2152       H  0.67262887  0.60214117  0.43566643     0.12700
H2153       H  0.59303379  0.55977243  0.58507749     0.12800
C2154       C  0.63535096  0.61675542  0.61616838     0.62300
F2155       F  0.65108282  0.56154381  0.36838760    -0.22900
F2156       F  0.59013015  0.57439853  0.38322005    -0.20200
F2157       F  0.61314378  0.51682482  0.39644008    -0.19900
F2158       F  0.60018046  0.63247865  0.62537624    -0.19900
F2159       F  0.66198119  0.64425671  0.62128087    -0.20300
F2160       F  0.64201589  0.59064135  0.65491483    -0.22900
C2161       C  0.60559196  0.87001827  0.46426796    -0.05800
C2162       C  0.61192779  0.84467459  0.50443957     0.00200
C2163       C  0.58708223  0.84125806  0.54805093    -0.08400
C2164       C  0.55646801  0.86508856  0.55144119    -0.05800
C2165       C  0.55159538  0.89223048  0.51356670     0.00100
C2166       C  0.57492319  0.89413311  0.46745449    -0.08300
C2167       C  0.56784502  0.92086025  0.42195535     0.62000
H2168       H  0.62503076  0.87076925  0.43087629     0.12700
H2169       H  0.53717235  0.86422447  0.58490551     0.12800
C2170       C  0.59353194  0.81333245  0.59124159     0.62300
F2171       F  0.59573948  0.91826758  0.38332003    -0.22900
F2172       F  0.56651805  0.95711252  0.44055314    -0.20200
F2173       F  0.53432996  0.91252341  0.39738690    -0.19900
F2174       F  0.62926954  0.81724058  0.61146281    -0.19900
F2175       F  0.58929474  0.77832691  0.56974966    -0.20300
F2176       F  0.56832449  0.81748182  0.63288099    -0.22900
C2177       C  0.84267314  0.89491421  0.42018772    -0.05800
C2178       C  0.84778966  0.88829826  0.47437870     0.00200
C2179       C  0.86681761  0.91401767  0.50670954    -0.08400
C2180       C  0.87962620  0.94672103  0.48287272    -0.05800
C2181       C  0.88214436  0.94879834  0.42671996     0.00100
C2182       C  0.86125823  0.92383681  0.39528680    -0.08300
C2183       C  0.86758198  0.92133475  0.33600587     0.62000
H2184       H  0.82745719  0.87476787  0.39639249     0.12700
H2185       H  0.89728216  0.96495657  0.50610353     0.12800
C2186       C  0.87993163  0.90375797  0.56205639     0.62300
F2187       F  0.86771083  0.95636553  0.31588482    -0.22900
F2188       F  0.83967852  0.90189430  0.31122812    -0.20200
F2189       F  0.90168213  0.90395940  0.32454524    -0.19900
F2190       F  0.85078923  0.88996416  0.59185977    -0.19900
F2191       F  0.89476503  0.93396674  0.58904118    -0.20300
F2192       F  0.90753025  0.87646337  0.55790056    -0.22900
C2193       C  0.57387951  0.76484487  0.27327312    -0.05800
C2194       C  0.54313384  0.74065704  0.28588047     0.00200
C2195       C  0.55263901  0.71330555  0.32573316    -0.08400
C2196       C  0.58923369  0.71277007  0.34934005    -0.05800
C2197       C  0.61792001  0.73810452  0.33755553     0.00100
C2198       C  0.60926794  0.76549530  0.29976804    -0.08300
C2199       C  0.63688822  0.79630580  0.28827109     0.62000
H2200       H  0.57185828  0.78269751  0.23963692     0.12700
H2201       H  0.59586972  0.69239165  0.37917499     0.12800
C2202       C  0.52525730  0.68451205  0.34609159     0.62300
F2203       F  0.62207271  0.82237642  0.25397342    -0.22900
F2204       F  0.66928416  0.78145321  0.26531852    -0.20200
F2205       F  0.64591077  0.81460575  0.33518013    -0.19900
F2206       F  0.51198905  0.66277677  0.30502406    -0.19900
F2207       F  0.99342324  0.71592970  0.37492932    -0.20300
F2208       F  0.54161816  0.66032178  0.38177303    -0.22900
C2209       C  0.94221561  0.71902422  0.29188090    -0.05800
C2210       C  0.96699121  0.75023798  0.28870261     0.00200
C2211       C  0.95491090  0.78111549  0.32237498    -0.08400
C2212       C  0.91693692  0.78304888  0.34242277    -0.05800
C2213       C  0.89129648  0.75349188  0.33838846     0.00100
C2214       C  0.90566825  0.71997278  0.31599227    -0.08300
C2215       C  0.88295379  0.68454008  0.32019285     0.62000
H2216       H  0.95204406  0.69220571  0.27871411     0.12700
H2217       H  0.90756472  0.80707398  0.36552214     0.12800
C2218       C  0.98230629  0.80986304  0.34396996     0.62300
F2219       F  0.90350213  0.65346658  0.30437388    -0.22900
F2220       F  0.85138393  0.68729713  0.28853974    -0.20200
F2221       F  0.87175738  0.67902830  0.37223038    -0.19900
F2222       F  0.96400865  0.83664454  0.37407411    -0.19900
F2223       F  0.00097630  0.82836687  0.30460049    -0.20300
F2224       F  0.00809082  0.79274774  0.37674523    -0.22900
C2225       C  0.71310468  0.90828682  0.34705855    -0.05800
C2226       C  0.73836985  0.87919919  0.33265356     0.00200
C2227       C  0.76314148  0.88670856  0.28998175    -0.08400
C2228       C  0.76621558  0.92392509  0.27049563    -0.05800
C2229       C  0.74271363  0.95493725  0.28715967     0.00100
C2230       C  0.71277780  0.94438769  0.32341726    -0.08300
C2231       C  0.67704276  0.96743798  0.33399416     0.62000
H2232       H  0.69192549  0.90176692  0.37655384     0.12700
H2233       H  0.78636497  0.92771000  0.23901490     0.12800
C2234       C  0.78534087  0.85512544  0.26334980     0.62300
F2235       F  0.65030460  0.95896029  0.29627734    -0.22900
F2236       F  0.68329522  0.00502897  0.33365115    -0.20200
F2237       F  0.66162917  0.95914931  0.38298187    -0.19900
F2238       F  0.76046810  0.83035584  0.24064083    -0.19900
F2239       F  0.80725465  0.83668915  0.30008803    -0.20300
F2240       F  0.80893211  0.86761987  0.22353416    -0.22900
C2241       C  0.77808245  0.57663839  0.35734703    -0.05800
C2242       C  0.75433905  0.60692447  0.34428580     0.00200
C2243       C  0.72235869  0.59794683  0.31351251    -0.08400
C2244       C  0.71744860  0.56069582  0.29386234    -0.05800
C2245       C  0.74484349  0.53122685  0.29825729     0.00100
C2246       C  0.77444053  0.53971769  0.33613931    -0.08300
C2247       C  0.80496650  0.51285377  0.35517160     0.62000
H2248       H  0.80078856  0.58211277  0.38491289     0.12700
H2249       H  0.69149967  0.55524758  0.27384045     0.12800
C2250       C  0.69289467  0.62768283  0.30200070     0.62300
F2251       F  0.83987719  0.52936877  0.35130283    -0.22900
F2252       F  0.80763642  0.48007300  0.32710195    -0.20200
F2253       F  0.79817063  0.50476885  0.40791089    -0.19900
F2254       F  0.70844073  0.65400728  0.26919089    -0.19900
F2255       F  0.68078567  0.64476363  0.34877485    -0.20300
F2256       F  0.66160303  0.61323052  0.27696450    -0.22900
loop_ 
_geom_bond_atom_site_label_1 
_geom_bond_atom_site_label_2 
_geom_bond_distance 
_geom_bond_site_symmetry_2 
_ccdc_geom_bond_type 
O1          Zr37   2.589       .  S
O1           C12   1.323       .  A
O2          Zr36   2.581       .  S
O2           C13   1.322       .  A
O3           Zr9   2.367       .  S
O3           C14   1.279       .  A
O4           Zr9   2.398       .  S
O4           C15   1.281       .  A
O5          Zr39   2.432       .  S
O5           C15   1.287       .  A
O6          Zr38   2.387       .  S
O6           C14   1.280       .  A
O7           Zr9   2.404       .  S
O7           C13   1.284       .  A
O8           Zr9   2.427       .  S
O8           C12   1.288       .  A
Zr9          O10   2.316       .  S
Zr9          O11   2.339       .  S
Zr9          O19   2.335       .  S
Zr9          O17   2.337       .  S
O10         Zr36   2.356       .  S
O10         Zr39   2.305       .  S
O11         Zr37   2.363       .  S
O11         Zr38   2.361       .  S
C12         C550   1.545       .  S
C13         C409   1.525       .  S
C14         C438   1.448       .  S
C15         C454   1.466       .  S
H16          O17   0.964       .  S
O17         Zr36   2.369       .  S
O17         Zr38   2.358       .  S
H18          O19   0.966       .  S
O19         Zr37   2.387       .  S
O19         Zr39   2.327       .  S
O20         Zr36   2.575       .  S
O20          C43   1.320       .  A
O21         Zr37   2.572       .  S
O21          C44   1.320       .  A
O22         Zr38   2.441       .  S
O22          C45   1.293       .  A
O23         Zr39   2.377       .  S
O23          C46   1.280       .  A
O24         Zr39   2.408       .  S
O24          C47   1.288       .  A
O25         Zr38   2.428       .  S
O25          C48   1.290       .  A
O26         Zr40   2.395       .  S
O26          C49   1.279       .  A
O27         Zr40   2.394       .  S
O27          C50   1.281       .  A
O28         Zr38   2.487       .  S
O28          C49   1.299       .  A
O29         Zr39   2.379       .  S
O29          C50   1.278       .  A
O30         Zr36   2.525       .  S
O30          C45   1.311       .  A
O31         Zr37   2.570       .  S
O31          C48   1.320       .  A
O32         Zr37   2.526       .  S
O32          C47   1.310       .  A
O33         Zr36   2.561       .  S
O33          C46   1.315       .  A
O34         Zr40   2.424       .  S
O34          C43   1.289       .  A
O35         Zr40   2.395       .  S
O35          C44   1.284       .  A
Zr36         O42   2.398       .  S
Zr36         O54   2.364       .  S
Zr37         O41   2.363       .  S
Zr37         O52   2.371       .  S
Zr38         O42   2.340       .  S
Zr38         O52   2.322       .  S
Zr39         O41   2.322       .  S
Zr39         O54   2.345       .  S
Zr40         O41   2.328       .  S
Zr40         O42   2.339       .  S
Zr40         O54   2.332       .  S
Zr40         O52   2.339       .  S
C43         C425   1.537       .  S
C44         C534   1.533       .  S
C45         C374   1.507       .  S
C46         C390   1.542       .  S
C47         C505   1.509       .  S
C48         C521   1.533       .  S
C49         C486   1.476       .  S
C50         C470   1.427       .  S
H51          O52   0.966       .  S
H53          O54   0.965       .  S
N55          C59   1.353       .  A
N55        C1188   1.349       .  A
N55        H1215   1.043       .  S
N56          C64   1.342   1_565  A
N56         C627   1.338       .  A
N57          C62   1.343       .  A
N57        C1189   1.343       .  A
N57          H88   1.037       .  S
N58          C66   1.356       .  A
N58         C629   1.351   1_545  A
C59          C67   1.378       .  A
C59          C75   1.392   1_655  A
C60        N1183   1.346       .  A
C60          C76   1.405       .  A
C60          C68   1.392       .  A
C61        N1185   1.348       .  A
C61          C69   1.383       .  A
C61          C78   1.410       .  A
C62          C77   1.405       .  A
C62          C70   1.390       .  A
C63         N620   1.335       .  A
C63          C75   1.402       .  A
C63          C71   1.393       .  A
C64          C78   1.395       .  A
C64          C72   1.380   1_545  A
C65         N622   1.347       .  A
C65          C73   1.387       .  A
C65          C76   1.403       .  A
C66          C74   1.381       .  A
C66          C77   1.405       .  A
C67        C1196   1.364       .  A
C67          H79   1.083       .  S
C68        C1195   1.359       .  A
C68          H80   1.079       .  S
C69        C1198   1.362       .  A
C69          H81   1.079       .  S
C70        C1197   1.360       .  A
C70          H82   1.071       .  S
C71         C636   1.365       .  A
C71          H83   1.077       .  S
C72         C635   1.365       .  A
C72          H84   1.083       .  S
C73         C638   1.371       .  A
C73          H85   1.083       .  S
C74         C637   1.365   1_545  A
C74          H86   1.083       .  S
C75         C473   1.466       .  S
C76         C489   1.482       .  S
C77         C441   1.465       .  S
C78         C457   1.465       .  S
H87        N1183   1.036       .  S
O89        Zr689   2.624       .  S
O89         C100   1.330       .  A
O90        Zr124   2.592       .  S
O90         C101   1.324       .  A
O91       Zr1225   2.444       .  S
O91         C102   1.292       .  A
O92         Zr97   2.436       .  S
O92         C103   1.291       .  A
O93        Zr127   2.399   1_556  S
O93         C103   1.280       .  A
O94        Zr126   2.404   1_556  S
O94         C102   1.283       .  A
O95         Zr97   2.438   1_554  S
O95         C101   1.291       .  A
O96         Zr97   2.359       .  S
O96         C100   1.277       .  A
Zr97       O1219   2.448       .  S
Zr97         O98   2.337   1_556  S
Zr97        O107   2.347       .  S
Zr97       O1227   2.335       .  S
Zr97       O1233   2.338   1_556  S
O98        Zr124   2.375       .  S
O98        Zr127   2.354       .  S
O99        Zr126   2.335   1_556  S
O99       Zr1225   2.332       .  S
O99       Zr1817   2.361   1_455  S
C100        C358   1.555       .  S
C101        C214   1.548       .  S
C102        C246   1.471       .  S
C103        C262   1.484       .  S
H104        O105   0.967       .  S
O105       Zr126   2.361       .  S
O105      Zr1225   2.345   1_554  S
O105      Zr1252   2.392   1_455  S
H106        O107   0.964       .  S
O107       Zr127   2.340   1_556  S
O107       Zr689   2.361       .  S
O108       Zr688   2.563   1_545  S
O108        C131   1.318       .  A
O109       Zr125   2.571   1_545  S
O109        C132   1.320       .  A
O110       Zr126   2.411       .  S
O110        C133   1.287       .  A
O111       Zr127   2.406       .  S
O111        C134   1.286       .  A
O112       Zr691   2.412   1_546  S
O112        C135   1.287       .  A
O113       Zr690   2.419   1_556  S
O113        C136   1.287       .  A
O114      Zr1256   2.368   1_455  S
O114        C137   1.272       .  A
O115       Zr128   2.347   1_556  S
O115        C138   1.272   1_556  A
O116       Zr690   2.427       .  S
O116        C137   1.289       .  A
O117       Zr691   2.450   1_545  S
O117        C138   1.289       .  A
O118      Zr1252   2.552   1_455  S
O118        C133   1.316       .  A
O119      Zr1253   2.570       .  S
O119        C136   1.320       .  A
O120       Zr125   2.564       .  S
O120        C135   1.319   1_565  A
O121       Zr124   2.590       .  S
O121        C134   1.325       .  A
O122       Zr128   2.442       .  S
O122        C131   1.291       .  A
O123       Zr128   2.431   1_556  S
O123        C132   1.288       .  A
Zr124       O672   2.579       .  S
Zr124      O1246   2.554       .  S
Zr124      O1233   2.382       .  S
Zr124      O1822   2.379       .  S
Zr124       O706   2.383       .  S
Zr125       O653   2.649       .  S
Zr125      O1247   2.594       .  S
Zr125       O129   2.385   1_565  S
Zr125      O1791   2.350       .  S
Zr125       O671   2.358       .  S
Zr125      O1268   2.385   1_565  S
Zr126       O677   2.398   1_554  S
Zr126       O680   2.442       .  S
Zr126       O694   2.326       .  S
Zr126       O704   2.336   1_554  S
Zr127       O676   2.426   1_554  S
Zr127       O681   2.419       .  S
Zr127       O693   2.338   1_554  S
Zr127       O706   2.341       .  S
Zr128      O1242   2.333       .  S
Zr128       O129   2.320   1_554  S
Zr128       O142   2.329       .  S
Zr128      O1258   2.338       .  S
Zr128      O1268   2.334   1_554  S
O129       Zr691   2.328   1_546  S
O130      Zr1816   2.392   1_455  S
O130       Zr690   2.313       .  S
O130      Zr1256   2.344   1_455  S
C131        C230   1.530       .  S
C132        C342   1.531       .  S
C133        C182   1.517       .  S
C134        C198   1.543       .  S
C135        C310   1.522       .  S
C136        C326   1.527       .  S
C137        C294   1.475       .  S
C138        C278   1.484       .  S
H139        O140   0.967       .  S
O140      Zr1253   2.391       .  S
O140       Zr690   2.334   1_556  S
O140      Zr1256   2.343   1_456  S
H141        O142   0.967       .  S
O142       Zr688   2.380   1_545  S
O142       Zr691   2.328   1_545  S
N143        C148   1.346       .  A
N143        C147   1.347       .  A
N143        H175   1.041       .  S
N144        C151   1.342   1_554  A
N144        C152   1.349       .  A
N145        C150   1.344       .  A
N145        C149   1.348       .  A
N145        H176   1.043       .  S
N146        C153   1.341       .  A
N146        C154   1.342       .  A
C147        C155   1.388       .  A
C147        C163   1.410       .  A
C148        C164   1.408       .  A
C148        C156   1.386       .  A
C149        C157   1.390       .  A
C149        C166   1.418       .  A
C150        C165   1.407       .  A
C150        C158   1.380       .  A
C151        C163   1.403       .  A
C151        C159   1.392   1_556  A
C152        C166   1.395       .  A
C152        C160   1.380       .  A
C153        C161   1.393       .  A
C153        C164   1.406   1_554  A
C154        C162   1.373       .  A
C154        C165   1.382       .  A
C155        C156   1.381       .  A
C155        H167   1.083       .  S
C156        H168   1.081       .  S
C157        C158   1.389       .  A
C157        H169   1.082       .  S
C158        H170   1.079       .  S
C159        C160   1.373       .  A
C159        H171   1.081       .  S
C160        H172   1.082       .  S
C161        C162   1.371       .  A
C161        H173   1.080       .  S
C162        H174   1.080       .  S
C163        C265   1.473       .  S
C164        C249   1.469       .  S
C165        C297   1.483       .  S
C166        C281   1.494       .  S
C177        C217   1.662       .  S
C177        C233   1.649       .  S
C177        C518   1.656       .  S
C177       C1630   1.632       .  S
C178        C553   1.657   1_565  S
C178        C749   1.624       .  S
C178        C765   1.638       .  S
C178       C1101   1.635       .  S
C179        C345   1.671   1_455  S
C179        C361   1.621       .  S
C179        C393   1.626       .  S
C179       C1505   1.623   1_455  S
C180        C422   1.650       .  S
C180        C877   1.630       .  S
C180        C893   1.641       .  S
C180        C970   1.639       .  S
C181        C186   1.425       .  A
C181        C746   1.410       .  A
C181        H188   1.085       .  S
C182        C183   1.408       .  A
C182        C745   1.407       .  A
C183        C184   1.422       .  A
C183        C190   1.520       .  S
C184        C185   1.439       .  A
C184        H189   1.071       .  S
C185        C750   1.449       .  A
C185        C742   1.626       .  S
C186        C749   1.446   1_545  A
C186        C187   1.521       .  S
C187        F191   1.381       .  S
C187        F192   1.369       .  S
C187        F193   1.380       .  S
C190        F194   1.384       .  S
C190        F195   1.383       .  S
C190        F196   1.382       .  S
C197        C198   1.415       .  A
C197        C202   1.437       .  A
C197        H204   1.081       .  S
C198        C763   1.411       .  A
C199        C200   1.419       .  A
C199        C762   1.406   1_545  A
C199        C206   1.517       .  S
C200        C765   1.433   1_545  A
C200        H205   1.061       .  S
C201        C202   1.456       .  A
C201        C764   1.426       .  A
C201        C742   1.642       .  S
C202        C203   1.532       .  S
C203        F207   1.379       .  S
C203        F209   1.384       .  S
C203        F772   1.375       .  S
C206        F210   1.382       .  S
C206        F775   1.383       .  S
C206        F776   1.384       .  S
F208        C767   1.373       .  S
F211        C770   1.380       .  S
F212        C770   1.385       .  S
C213        C214   1.410       .  A
C213        C218   1.439       .  A
C213        H220   1.084       .  S
C214       C1343   1.418       .  A
C215        C216   1.443       .  A
C215       C1342   1.427       .  A
C215        C222   1.516       .  S
C216       C1345   1.437   1_655  A
C216        H221   1.078       .  S
C217        C218   1.452       .  A
C217       C1344   1.438       .  A
C218        C219   1.516       .  S
C219        F223   1.385       .  S
C219        F224   1.372       .  S
C219       F1353   1.376       .  S
C222        F227   1.382       .  S
C222        F228   1.385       .  S
C222       F1354   1.382       .  S
F225       C1347   1.367       .  S
F226       C1350   1.383       .  S
C229        C234   1.429       .  A
C229       C1358   1.385       .  A
C229        H236   1.086       .  S
C230        C231   1.411       .  A
C230       C1357   1.388       .  A
C231        C232   1.432       .  A
C231        C238   1.508       .  S
C232        C233   1.425       .  A
C232        H237   1.082       .  S
C233       C1362   1.480       .  A
C234       C1361   1.485       .  A
C234        C235   1.533       .  S
C235        F239   1.381       .  S
C235        F240   1.382       .  S
C235        F241   1.360       .  S
C238        F242   1.379       .  S
C238        F243   1.375       .  S
C238        F244   1.380       .  S
C245        C246   1.398       .  A
C245        C250   1.399       .  A
C245        H252   1.085   1_556  S
C246        C247   1.415       .  A
C247        C248   1.394       .  A
C247        C254   1.506       .  S
C248        C249   1.393       .  A
C248        H253   1.085       .  S
C249        C250   1.421       .  A
C250        C251   1.516   1_556  S
C251        F255   1.379   1_554  S
C251        F256   1.380   1_554  S
C251        F257   1.383       .  S
C254        F258   1.380       .  S
C254        F259   1.382       .  S
C254        F260   1.384       .  S
C261        C262   1.409       .  A
C261        C266   1.395       .  A
C261        H268   1.084       .  S
C262        C263   1.432       .  A
C263        C264   1.397       .  A
C263        C270   1.518       .  S
C264        C265   1.396       .  A
C264        H269   1.081       .  S
C265        C266   1.400       .  A
C266        C267   1.506       .  S
C267        F271   1.376       .  S
C267        F272   1.383       .  S
C267        F273   1.379       .  S
C270        F274   1.373       .  S
C270        F275   1.383       .  S
C270        F276   1.382       .  S
C277        C278   1.414       .  A
C277        C282   1.392       .  A
C277        H284   1.082       .  S
C278        C279   1.411       .  A
C279        C280   1.406       .  A
C279        C286   1.522       .  S
C280        C281   1.408       .  A
C280        H285   1.058       .  S
C281        C282   1.416       .  A
C282        C283   1.527       .  S
C283        F287   1.383       .  S
C283        F288   1.384       .  S
C283        F289   1.377       .  S
C286        F290   1.383       .  S
C286        F291   1.383   1_554  S
C286        F292   1.376       .  S
C293        C294   1.396       .  A
C293        C298   1.394       .  A
C293        H300   1.084       .  S
C294        C295   1.422       .  A
C295        C296   1.393       .  A
C295        C302   1.517       .  S
C296        C297   1.399       .  A
C296        H301   1.082       .  S
C297        C298   1.420       .  A
C298        C299   1.499       .  S
C299        F303   1.386   1_554  S
C299        F304   1.374       .  S
C299        F305   1.381       .  S
C302        F306   1.379       .  S
C302        F307   1.378   1_554  S
C302        F308   1.386       .  S
C309        C310   1.414       .  A
C309        C314   1.431       .  A
C309        H316   1.082       .  S
C310        C875   1.410   1_545  A
C311        C312   1.426       .  A
C311        C874   1.409       .  A
C311        C318   1.520       .  S
C312        C877   1.437       .  A
C312        H317   1.070       .  S
C313        C314   1.451       .  A
C313        C876   1.433   1_545  A
C313        C744   1.616       .  S
C314        C315   1.540       .  S
C315        F319   1.384       .  S
C315        F321   1.374       .  S
C315        F884   1.379       .  S
C318        F322   1.384       .  S
C318        F324   1.382       .  S
C318        F887   1.384       .  S
F320        C879   1.378       .  S
F323        C882   1.385       .  S
C325        C330   1.436       .  A
C325        C890   1.413       .  A
C325        H332   1.083       .  S
C326        C327   1.410       .  A
C326        C889   1.409   1_545  A
C327        C328   1.428       .  A
C327        C334   1.518       .  S
C328        C329   1.433       .  A
C328        H333   1.068       .  S
C329        C894   1.457   1_545  A
C329        C744   1.639       .  S
C330        C893   1.452       .  A
C330        C331   1.530       .  S
C331        F335   1.381       .  S
C331        F336   1.373       .  S
C331        F337   1.383       .  S
C334        F338   1.384       .  S
C334        F339   1.382       .  S
C334        F340   1.384       .  S
C341        C346   1.444       .  A
C341       C1470   1.416   1_455  A
C341        H348   1.085       .  S
C342        C343   1.416       .  A
C342       C1469   1.382       .  A
C343        C344   1.437       .  A
C343        C350   1.514       .  S
C344       C1473   1.434       .  A
C344        H349   1.080       .  S
C345        C346   1.447   1_655  A
C345       C1472   1.437       .  A
C346        C347   1.525       .  S
C347        F351   1.379       .  S
C347        F352   1.371       .  S
C347        F353   1.382       .  S
C350        F354   1.380       .  S
C350        F355   1.385       .  S
C350        F356   1.382       .  S
C357        C362   1.434       .  A
C357       C1486   1.391   1_455  A
C357        H364   1.083       .  S
C358        C359   1.410       .  A
C358       C1485   1.434       .  A
C359        C360   1.428       .  A
C359        C366   1.515       .  S
C360       C1489   1.443       .  A
C360        H365   1.073       .  S
C361        C362   1.470       .  A
C361       C1488   1.409   1_455  A
C362        C363   1.516       .  S
C363        F367   1.385       .  S
C363        F368   1.370       .  S
C363        F369   1.374       .  S
C366        F370   1.382       .  S
C366        F371   1.385       .  S
C366        F372   1.382       .  S
C373        C374   1.405       .  A
C373        C378   1.429       .  A
C373        H380   1.084       .  S
C374        C375   1.401       .  A
C375        C376   1.416       .  A
C375        C382   1.521       .  S
C376        C377   1.443       .  A
C376        H381   1.071       .  S
C377        C378   1.450       .  A
C377       C1307   1.636       .  S
C378        C379   1.520       .  S
C379        F383   1.386       .  S
C379        F385   1.366       .  S
C379       F1512   1.382       .  S
C382        F386   1.385       .  S
C382        F387   1.382       .  S
C382        F388   1.384       .  S
F384       C1507   1.377   1_455  S
C389        C390   1.415       .  A
C389        C394   1.420       .  A
C389        H396   1.081       .  S
C390        C391   1.405       .  A
C391        C392   1.430       .  A
C391        C398   1.517       .  S
C392        C393   1.438       .  A
C392        H397   1.053       .  S
C393        C394   1.461       .  A
C394        C395   1.543       .  S
C395        F399   1.388       .  S
C395        F401   1.383       .  S
C395       F1528   1.362   1_455  S
C398        F402   1.381       .  S
C398        F403   1.384       .  S
C398        F404   1.381       .  S
F400       C1523   1.374       .  S
C405        C406   1.445       .  A
C405        C410   1.430       .  A
C405        H412   1.073       .  S
C406        C407   1.449       .  A
C406        C744   1.646       .  S
C407        C408   1.432       .  A
C407        C414   1.519       .  S
C408        C409   1.409       .  A
C408        H413   1.083       .  S
C409        C410   1.411       .  A
C410        C411   1.521       .  S
C411        F415   1.385       .  S
C411        F416   1.383       .  S
C411        F417   1.384       .  S
C414        F418   1.383       .  S
C414        F419   1.371       .  S
C414        F420   1.381       .  S
C421        C422   1.439       .  A
C421        C426   1.429       .  A
C421        H428   1.065       .  S
C422        C423   1.454       .  A
C423        C424   1.436       .  A
C423        C430   1.530       .  S
C424        C425   1.412       .  A
C424        H429   1.079       .  S
C425        C426   1.409       .  A
C426        C427   1.518       .  S
C427        F431   1.384       .  S
C427        F432   1.382       .  S
C427        F433   1.379       .  S
C430        F434   1.376       .  S
C430        F435   1.377       .  S
C430        F436   1.383       .  S
C437        C438   1.396       .  A
C437        C442   1.389       .  A
C437        H444   1.085       .  S
C438        C439   1.401       .  A
C439        C440   1.391       .  A
C439        C446   1.518       .  S
C440        C441   1.406       .  A
C440        H445   1.084       .  S
C441        C442   1.423       .  A
C442        C443   1.514       .  S
C443        F447   1.385       .  S
C443        F448   1.378       .  S
C443        F449   1.381       .  S
C446        F450   1.384       .  S
C446        F451   1.378       .  S
C446        F452   1.379       .  S
C453        C454   1.396       .  A
C453        C458   1.390       .  A
C453        H460   1.085       .  S
C454        C455   1.420       .  A
C455        C456   1.401       .  A
C455        C462   1.505       .  S
C456        C457   1.395       .  A
C456        H461   1.084       .  S
C457        C458   1.404       .  A
C458        C459   1.503       .  S
C459        F463   1.384       .  S
C459        F464   1.381       .  S
C459        F465   1.382   1_545  S
C462        F466   1.376       .  S
C462        F467   1.382       .  S
C462        F468   1.386       .  S
C469        C470   1.386       .  A
C469        C474   1.390       .  A
C469        H476   1.079       .  S
C470        C471   1.400       .  A
C471        C472   1.388       .  A
C471        C478   1.512       .  S
C472        C473   1.397       .  A
C472        H477   1.080       .  S
C473        C474   1.428       .  A
C474        C475   1.524       .  S
C475        F479   1.386       .  S
C475        F480   1.382       .  S
C475        F481   1.379       .  S
C478        F482   1.383       .  S
C478        F483   1.377       .  S
C478        F484   1.380       .  S
C485        C486   1.408       .  A
C485        C490   1.408       .  A
C485        H492   1.083       .  S
C486        C487   1.409       .  A
C487        C488   1.407       .  A
C487        C494   1.514       .  S
C488        C489   1.411       .  A
C488        H493   1.081       .  S
C489        C490   1.412       .  A
C490        C491   1.517       .  S
C491        F495   1.377       .  S
C491        F496   1.378       .  S
C491        F497   1.371       .  S
C494        F498   1.383       .  S
C494        F499   1.379       .  S
C494        F500   1.385       .  S
C501        C502   1.433       .  A
C501        C506   1.432       .  A
C501        H508   1.071       .  S
C502        C503   1.446       .  A
C502       C1305   1.606       .  S
C503        C504   1.418       .  A
C503        C510   1.521       .  S
C504        C505   1.396       .  A
C504        H509   1.082       .  S
C505        C506   1.414       .  A
C506        C507   1.518       .  S
C507        F511   1.382       .  S
C507        F512   1.383       .  S
C507        F513   1.381       .  S
C510        F514   1.373       .  S
C510        F516   1.379       .  S
C510       F1643   1.373       .  S
F515       C1638   1.375       .  S
C517        C518   1.443       .  A
C517        C522   1.434       .  A
C517        H524   1.069       .  S
C518        C519   1.453       .  A
C519        C520   1.432       .  A
C519        C526   1.512       .  S
C520        C521   1.405       .  A
C520        H525   1.085       .  S
C521        C522   1.413       .  A
C522        C523   1.520       .  S
C523        F527   1.381       .  S
C523        F528   1.382       .  S
C523        F529   1.383       .  S
C526        F530   1.360       .  S
C526        F531   1.380       .  S
C526        F532   1.382       .  S
C533        C534   1.415       .  A
C533        C538   1.432       .  A
C533        H540   1.081       .  S
C534        C535   1.403       .  A
C535        C536   1.428       .  A
C535        C542   1.522       .  S
C536        C537   1.441       .  A
C536        H541   1.062       .  S
C537        C538   1.447       .  A
C537        C742   1.639       .  S
C538        C539   1.525       .  S
C539        F543   1.384       .  S
C539        F544   1.376       .  S
C539        F545   1.379       .  S
C542        F546   1.384       .  S
C542        F547   1.383       .  S
C542        F548   1.384       .  S
C549        C550   1.413       .  A
C549        C554   1.435       .  A
C549        H556   1.085       .  S
C550        C551   1.415       .  A
C551        C552   1.437       .  A
C551        C558   1.520       .  S
C552        C553   1.442       .  A
C552        H557   1.070       .  S
C553        C554   1.458       .  A
C554        C555   1.526       .  S
C555        F559   1.384       .  S
C555        F560   1.368   1_545  S
C555        F561   1.384       .  S
C558        F562   1.382       .  S
C558        F563   1.384       .  S
C558        F564   1.384       .  S
O565       Zr601   2.607       .  S
O565        C576   1.326       .  A
O566       Zr600   2.591       .  S
O566        C577   1.324       .  A
O567       Zr573   2.399       .  S
O567        C578   1.285       .  A
O568       Zr573   2.374       .  S
O568        C579   1.277       .  A
O569       Zr603   2.414       .  S
O569        C579   1.287       .  A
O570       Zr602   2.363       .  S
O570        C578   1.275       .  A
O571       Zr573   2.409       .  S
O571        C577   1.285       .  A
O572       Zr573   2.436       .  S
O572        C576   1.290       .  A
Zr573       O574   2.332       .  S
Zr573       O575   2.336       .  S
Zr573       O583   2.340       .  S
Zr573       O581   2.330       .  S
O574       Zr600   2.358       .  S
O574       Zr603   2.309       .  S
O575       Zr601   2.379       .  S
O575       Zr602   2.367       .  S
C576       C1114   1.555       .  S
C577        C973   1.530       .  S
C578       C1002   1.449       .  S
C579       C1018   1.442       .  S
H580        O581   0.966       .  S
O581       Zr600   2.370       .  S
O581       Zr602   2.348       .  S
H582        O583   0.964       .  S
O583       Zr601   2.376       .  S
O583       Zr603   2.331       .  S
O584       Zr600   2.602       .  S
O584        C607   1.327       .  A
O585       Zr601   2.567       .  S
O585        C608   1.318       .  A
O586       Zr602   2.459       .  S
O586        C609   1.296       .  A
O587       Zr603   2.394       .  S
O587        C610   1.284       .  A
O588       Zr603   2.411       .  S
O588        C611   1.288       .  A
O589       Zr602   2.443       .  S
O589        C612   1.293       .  A
O590       Zr604   2.392       .  S
O590        C613   1.279       .  A
O591       Zr604   2.399       .  S
O591        C614   1.282       .  A
O592       Zr602   2.450       .  S
O592        C613   1.292       .  A
O593       Zr603   2.374       .  S
O593        C614   1.277       .  A
O594       Zr600   2.514       .  S
O594        C609   1.309       .  A
O595       Zr601   2.565       .  S
O595        C612   1.319       .  A
O596       Zr601   2.548       .  S
O596        C611   1.314       .  A
O597       Zr600   2.557       .  S
O597        C610   1.315       .  A
O598       Zr604   2.410       .  S
O598        C607   1.285       .  A
O599       Zr604   2.404       .  S
O599        C608   1.286       .  A
Zr600       O606   2.391       .  S
Zr600       O618   2.355       .  S
Zr601       O605   2.373       .  S
Zr601       O616   2.374       .  S
Zr602       O606   2.335       .  S
Zr602       O616   2.326       .  S
Zr603       O605   2.328       .  S
Zr603       O618   2.340       .  S
Zr604       O605   2.334       .  S
Zr604       O606   2.342       .  S
Zr604       O618   2.331       .  S
Zr604       O616   2.332       .  S
C607        C989   1.549       .  S
C608       C1098   1.533       .  S
C609        C938   1.509       .  S
C610        C954   1.540       .  S
C611       C1069   1.520       .  S
C612       C1085   1.534       .  S
C613       C1050   1.459       .  S
C614       C1034   1.423       .  S
H615        O616   0.963       .  S
H617        O618   0.967       .  S
N619       C1752   1.336       .  A
N619        C623   1.335       .  A
N619       H1779   1.035       .  S
N620        C628   1.345       .  A
N621        C626   1.341       .  A
N621       C1753   1.343       .  A
N621        H652   1.036       .  S
N622        C630   1.349       .  A
C623        C631   1.382       .  A
C623        C639   1.377   1_655  A
C624       N1747   1.343       .  A
C624        C640   1.388       .  A
C624        C632   1.385       .  A
C625       N1749   1.330       .  A
C625        C633   1.394       .  A
C625        C642   1.397       .  A
C626        C641   1.407       .  A
C626        C634   1.393       .  A
C627        C639   1.403       .  A
C627        C635   1.392       .  A
C628        C642   1.397       .  A
C628        C636   1.382       .  A
C629        C637   1.388       .  A
C629        C640   1.404       .  A
C630        C638   1.384       .  A
C630        C641   1.402       .  A
C631       C1760   1.365       .  A
C631        H643   1.083       .  S
C632       C1759   1.365       .  A
C632        H644   1.081       .  S
C633       C1762   1.379       .  A
C633        H645   1.081       .  S
C634       C1761   1.354       .  A
C634        H646   1.068       .  S
C635        H647   1.079       .  S
C636        H648   1.083       .  S
C637        H649   1.083       .  S
C638        H650   1.083       .  S
C639       C1037   1.445       .  S
C640       C1053   1.476       .  S
C641       C1005   1.462       .  S
C642       C1021   1.444       .  S
H651       N1747   1.036       .  S
O653        C664   1.337       .  A
O654       Zr688   2.575       .  S
O654        C665   1.319       .  A
O655      Zr1789   2.448   1_556  S
O655        C666   1.291       .  A
O656       Zr661   2.427   1_556  S
O656        C667   1.290       .  A
O657       Zr691   2.397   1_556  S
O657        C667   1.280       .  A
O658       Zr690   2.363   1_566  S
O658        C666   1.275       .  A
O659       Zr661   2.436       .  S
O659        C665   1.292       .  A
O660       Zr661   2.346   1_556  S
O660        C664   1.267       .  A
Zr661      O1783   2.457   1_554  S
Zr661       O662   2.327       .  S
Zr661      O1791   2.323   1_554  S
Zr661       O671   2.348   1_554  S
Zr661      O1797   2.323       .  S
O662       Zr688   2.365       .  S
O662       Zr691   2.356       .  S
O663      Zr1789   2.333   1_556  S
O663      Zr1253   2.362   1_565  S
O663       Zr690   2.329   1_566  S
C664        C922   1.551       .  S
C665        C778   1.553       .  S
C666        C810   1.450       .  S
C667        C826   1.483       .  S
H668        O669   0.966       .  S
O669      Zr1789   2.318       .  S
O669      Zr1816   2.377   1_465  S
O669       Zr690   2.373   1_565  S
H670        O671   0.965       .  S
O671       Zr691   2.348   1_556  S
O672        C695   1.321       .  A
O673       Zr689   2.578       .  S
O673        C696   1.321       .  A
O674       Zr690   2.399       .  S
O674        C697   1.285       .  A
O675       Zr691   2.407       .  S
O675        C698   1.287       .  A
O676        C699   1.290       .  A
O677        C700   1.284       .  A
O678      Zr1820   2.341   1_455  S
O678        C701   1.268       .  A
O679       Zr692   2.376       .  S
O679        C702   1.278       .  A
O680        C701   1.293       .  A
O681        C702   1.282       .  A
O682      Zr1816   2.569   1_455  S
O682        C697   1.319       .  A
O683      Zr1817   2.588   1_455  S
O683        C700   1.324       .  A
O684       Zr689   2.557       .  S
O684        C699   1.317       .  A
O685       Zr688   2.548       .  S
O685        C698   1.316       .  A
O686       Zr692   2.448       .  S
O686        C695   1.292       .  A
O687       Zr692   2.446   1_556  S
O687        C696   1.292       .  A
Zr688      O1810   2.536       .  S
Zr688      O1797   2.371       .  S
Zr688      O1258   2.382   1_565  S
Zr689      O1811   2.579       .  S
Zr689      O1227   2.365       .  S
Zr689       O693   2.383       .  S
Zr689      O1832   2.368       .  S
Zr692      O1806   2.321   1_554  S
Zr692       O693   2.313   1_554  S
Zr692      O1822   2.337       .  S
Zr692       O706   2.334       .  S
Zr692      O1832   2.333   1_554  S
O694      Zr1252   2.378   1_455  S
O694      Zr1820   2.338   1_455  S
C695        C794   1.546       .  S
C696        C906   1.543       .  S
C697        C746   1.520       .  S
C698        C762   1.523       .  S
C699        C874   1.529       .  S
C700        C890   1.529       .  S
C701        C858   1.461       .  S
C702        C842   1.472       .  S
H703        O704   0.966       .  S
O704      Zr1817   2.364   1_455  S
O704      Zr1820   2.332   1_456  S
H705        O706   0.967       .  S
N707        C712   1.348       .  A
N707        C711   1.348       .  A
N707        H739   1.040       .  S
N708        C715   1.345   1_554  A
N708        C716   1.349       .  A
N709        C714   1.340       .  A
N709        C713   1.346       .  A
N709        H740   1.044       .  S
N710        C717   1.341   1_554  A
N710        C718   1.341       .  A
C711        C719   1.389       .  A
C711        C727   1.413       .  A
C712        C728   1.408       .  A
C712        C720   1.384       .  A
C713        C721   1.390       .  A
C713        C730   1.410       .  A
C714        C729   1.398       .  A
C714        C722   1.381       .  A
C715        C727   1.405       .  A
C715        C723   1.391   1_556  A
C716        C730   1.395       .  A
C716        C724   1.381       .  A
C717        C725   1.393   1_556  A
C717        C728   1.412       .  A
C718        C726   1.369       .  A
C718        C729   1.377       .  A
C719        C720   1.380       .  A
C719        H731   1.082       .  S
C720        H732   1.080       .  S
C721        C722   1.382       .  A
C721        H733   1.082       .  S
C722        H734   1.080       .  S
C723        C724   1.372       .  A
C723        H735   1.082       .  S
C724        H736   1.082       .  S
C725        C726   1.368       .  A
C725        H737   1.079       .  S
C726        H738   1.075       .  S
C727        C829   1.477       .  S
C728        C813   1.474       .  S
C729        C861   1.460       .  S
C730        C845   1.486       .  S
C741        C781   1.669       .  S
C741        C797   1.668       .  S
C741       C2194   1.639       .  S
C741       C1082   1.666       .  S
C742       C1117   1.665       .  S
C743        C909   1.672   1_655  S
C743        C925   1.647   1_655  S
C743       C2069   1.619       .  S
C743        C957   1.611   1_655  S
C744        C986   1.651   1_545  S
C745        C750   1.425       .  A
C745        H752   1.085       .  S
C746        C747   1.408   1_545  A
C747        C748   1.420       .  A
C747        C754   1.518       .  S
C748        C749   1.438       .  A
C748        H753   1.070       .  S
C750        C751   1.522       .  S
C751        F755   1.380       .  S
C751        F756   1.369       .  S
C751        F757   1.380       .  S
C754        F758   1.383       .  S
C754        F759   1.382       .  S
C754        F760   1.385       .  S
C761        C762   1.410       .  A
C761        C766   1.431       .  A
C761        H768   1.082       .  S
C763        C764   1.421       .  A
C763        C770   1.503       .  S
C764        H769   1.063       .  S
C765        C766   1.457       .  A
C766        C767   1.533       .  S
C767        F771   1.378       .  S
C767        F773   1.384       .  S
C770        F774   1.375       .  S
C777        C778   1.410       .  A
C777        C782   1.437       .  A
C777        H784   1.081       .  S
C778       C1907   1.414       .  A
C779       C1906   1.428       .  A
C779        C780   1.450       .  A
C779        C786   1.515       .  S
C780       C1909   1.441   1_655  A
C780        H785   1.077       .  S
C781       C1908   1.440       .  A
C781        C782   1.455       .  A
C782        C783   1.508       .  S
C783        F787   1.386       .  S
C783        F788   1.377       .  S
C783       F1917   1.377       .  S
C786       F1918   1.383       .  S
C786        F791   1.385       .  S
C786        F792   1.383       .  S
F789       C1911   1.381       .  S
F790       C1914   1.382       .  S
C793       C1922   1.396   1_455  A
C793        C798   1.439       .  A
C793        H800   1.085       .  S
C794       C1921   1.409       .  A
C794        C795   1.407       .  A
C795        C796   1.422       .  A
C795        C802   1.503       .  S
C796        C797   1.426       .  A
C796        H801   1.064       .  S
C797       C1926   1.467       .  A
C798       C1925   1.477       .  A
C798        C799   1.530       .  S
C799        F803   1.385       .  S
C799        F804   1.382       .  S
C799        F805   1.362       .  S
C802        F806   1.382       .  S
C802        F807   1.377       .  S
C802        F808   1.382       .  S
C809        C810   1.393       .  A
C809        C814   1.391       .  A
C809        H816   1.085   1_556  S
C810        C811   1.416       .  A
C811        C812   1.399       .  A
C811        C818   1.518       .  S
C812        C813   1.398       .  A
C812        H817   1.081       .  S
C813        C814   1.420       .  A
C814        C815   1.512   1_556  S
C815        F819   1.381       .  S
C815        F820   1.377   1_554  S
C815        F821   1.383       .  S
C818        F822   1.377       .  S
C818        F823   1.380       .  S
C818        F824   1.377       .  S
C825        C826   1.409       .  A
C825        C830   1.392       .  A
C825        H832   1.074       .  S
C826        C827   1.427       .  A
C827        C828   1.399       .  A
C827        C834   1.524       .  S
C828        C829   1.403       .  A
C828        H833   1.078       .  S
C829        C830   1.403       .  A
C830        C831   1.517       .  S
C831        F835   1.380       .  S
C831        F836   1.384       .  S
C831        F837   1.382       .  S
C834        F838   1.380       .  S
C834        F839   1.383       .  S
C834        F840   1.383       .  S
C841        C842   1.403       .  A
C841        C846   1.384       .  A
C841        H848   1.082       .  S
C842        C843   1.412       .  A
C843        C844   1.407       .  A
C843        C850   1.520       .  S
C844        C845   1.411       .  A
C844        H849   1.070       .  S
C845        C846   1.410       .  A
C846        C847   1.518       .  S
C847        F851   1.379       .  S
C847        F852   1.383       .  S
C847        F853   1.379       .  S
C850        F854   1.383       .  S
C850        F855   1.379   1_554  S
C850        F856   1.379       .  S
C857        C858   1.395       .  A
C857        C862   1.390       .  A
C857        H864   1.085   1_554  S
C858        C859   1.424       .  A
C859        C860   1.389       .  A
C859        C866   1.522       .  S
C860        C861   1.393       .  A
C860        H865   1.082       .  S
C861        C862   1.420       .  A
C862        C863   1.511   1_554  S
C863        F867   1.385       .  S
C863        F868   1.376   1_556  S
C863        F869   1.378   1_556  S
C866        F870   1.379       .  S
C866        F871   1.384   1_554  S
C866        F872   1.386       .  S
C873        C874   1.411       .  A
C873        C878   1.434       .  A
C873        H880   1.080       .  S
C875        C876   1.421       .  A
C875        C882   1.520       .  S
C876        H881   1.072       .  S
C877        C878   1.453       .  A
C878        C879   1.536       .  S
C879        F883   1.385       .  S
C879        F885   1.373       .  S
C882        F886   1.382       .  S
C882        F888   1.383       .  S
C889        C894   1.434       .  A
C889        H896   1.082       .  S
C890        C891   1.409       .  A
C891        C892   1.427       .  A
C891        C898   1.516       .  S
C892        C893   1.433       .  A
C892        H897   1.069       .  S
C894        C895   1.535       .  S
C895        F899   1.380       .  S
C895        F900   1.373       .  S
C895        F901   1.385       .  S
C898        F902   1.384       .  S
C898        F903   1.383       .  S
C898        F904   1.382       .  S
C905       C2034   1.389   1_455  A
C905        C910   1.438       .  A
C905        H912   1.082       .  S
C906       C2033   1.402       .  A
C906        C907   1.430       .  A
C907        C908   1.436       .  A
C907        C914   1.517       .  S
C908       C2037   1.426       .  A
C908        H913   1.081       .  S
C909       C2036   1.432   1_455  A
C909        C910   1.480       .  A
C910        C911   1.524       .  S
C911        F915   1.383       .  S
C911        F916   1.377       .  S
C911        F917   1.373       .  S
C914        F918   1.383       .  S
C914        F919   1.384       .  S
C914        F920   1.384       .  S
C921       C2050   1.396   1_655  A
C921        C926   1.439       .  A
C921        H928   1.081       .  S
C922       C2049   1.393       .  A
C922        C923   1.457       .  A
C923        C924   1.427       .  A
C923        C930   1.534       .  S
C924       C2053   1.407       .  A
C924        H929   1.076       .  S
C925       C2052   1.407       .  A
C925        C926   1.477   1_455  A
C926        C927   1.535       .  S
C927        F931   1.385       .  S
C927        F932   1.372       .  S
C927        F933   1.370   1_655  S
C930        F934   1.379       .  S
C930        F935   1.380       .  S
C930        F936   1.386       .  S
C937        C938   1.404       .  A
C937        C942   1.432       .  A
C937        H944   1.085       .  S
C938        C939   1.399       .  A
C939        C940   1.418       .  A
C939        C946   1.521       .  S
C940        C941   1.445       .  A
C940        H945   1.072       .  S
C941        C942   1.457       .  A
C941       C1871   1.644       .  S
C942        C943   1.521       .  S
C943        F947   1.382       .  S
C943       F2076   1.373       .  S
C943        F949   1.386       .  S
C946        F950   1.383       .  S
C946        F951   1.384       .  S
C946        F952   1.384       .  S
F948       C2071   1.371   1_455  S
C953        C954   1.419       .  A
C953        C958   1.420       .  A
C953        H960   1.083       .  S
C954        C955   1.412       .  A
C955        C956   1.425       .  A
C955        C962   1.513       .  S
C956        C957   1.434       .  A
C956        H961   1.077       .  S
C957        C958   1.451       .  A
C958        C959   1.532       .  S
C959        F963   1.386       .  S
C959       F2092   1.363   1_455  S
C959        F965   1.381       .  S
C962        F966   1.373       .  S
C962        F967   1.382       .  S
C962        F968   1.383       .  S
F964       C2087   1.363       .  S
C969        C970   1.440       .  A
C969        C974   1.428       .  A
C969        H976   1.073       .  S
C970        C971   1.453       .  A
C971        C972   1.434       .  A
C971        C978   1.526       .  S
C972        C973   1.413       .  A
C972        H977   1.083       .  S
C973        C974   1.412       .  A
C974        C975   1.520       .  S
C975        F979   1.385       .  S
C975        F980   1.382       .  S
C975        F981   1.384       .  S
C978        F982   1.383       .  S
C978        F983   1.372       .  S
C978        F984   1.383       .  S
C985        C986   1.437       .  A
C985        C990   1.429       .  A
C985        H992   1.065       .  S
C986        C987   1.452       .  A
C987        C988   1.439       .  A
C987        C994   1.527       .  S
C988        C989   1.416       .  A
C988        H993   1.075       .  S
C989        C990   1.407       .  A
C990        C991   1.507       .  S
C991        F995   1.377       .  S
C991        F996   1.378       .  S
C991        F997   1.381       .  S
C994        F998   1.375   1_565  S
C994        F999   1.378   1_565  S
C994       F1000   1.382       .  S
C1001      C1002   1.394       .  A
C1001      C1006   1.393       .  A
C1001      H1008   1.085       .  S
C1002      C1003   1.402       .  A
C1003      C1004   1.391       .  A
C1003      C1010   1.522       .  S
C1004      C1005   1.407       .  A
C1004      H1009   1.085       .  S
C1005      C1006   1.426       .  A
C1006      C1007   1.516       .  S
C1007      F1011   1.386       .  S
C1007      F1012   1.382       .  S
C1007      F1013   1.380       .  S
C1010      F1014   1.385       .  S
C1010      F1015   1.377       .  S
C1010      F1016   1.380       .  S
C1017      C1018   1.396       .  A
C1017      C1022   1.389       .  A
C1017      H1024   1.085       .  S
C1018      C1019   1.413       .  A
C1019      C1020   1.385       .  A
C1019      C1026   1.507       .  S
C1020      C1021   1.388       .  A
C1020      H1025   1.086       .  S
C1021      C1022   1.411       .  A
C1022      C1023   1.512       .  S
C1023      F1027   1.380       .  S
C1023      F1028   1.381       .  S
C1023      F1029   1.384       .  S
C1026      F1030   1.378       .  S
C1026      F1031   1.379       .  S
C1026      F1032   1.381       .  S
C1033      C1034   1.385       .  A
C1033      C1038   1.386       .  A
C1033      H1040   1.081       .  S
C1034      C1035   1.404       .  A
C1035      C1036   1.379       .  A
C1035      C1042   1.504       .  S
C1036      C1037   1.387       .  A
C1036      H1041   1.084       .  S
C1037      C1038   1.429       .  A
C1038      C1039   1.527       .  S
C1039      F1043   1.386       .  S
C1039      F1044   1.380       .  S
C1039      F1045   1.380       .  S
C1042      F1046   1.365       .  S
C1042      F1047   1.384       .  S
C1042      F1048   1.381       .  S
C1049      C1050   1.400       .  A
C1049      C1054   1.400       .  A
C1049      H1056   1.084       .  S
C1050      C1051   1.402       .  A
C1051      C1052   1.407       .  A
C1051      C1058   1.519       .  S
C1052      C1053   1.420       .  A
C1052      H1057   1.082       .  S
C1053      C1054   1.417       .  A
C1054      C1055   1.519       .  S
C1055      F1059   1.384       .  S
C1055      F1060   1.381       .  S
C1055      F1061   1.374       .  S
C1058      F1062   1.376       .  S
C1058      F1063   1.384       .  S
C1058      F1064   1.383       .  S
C1065      C1066   1.435       .  A
C1065      C1070   1.432       .  A
C1065      H1072   1.069       .  S
C1066      C1067   1.450       .  A
C1066      C1869   1.620       .  S
C1067      C1068   1.423       .  A
C1067      C1074   1.524       .  S
C1068      C1069   1.401       .  A
C1068      H1073   1.082       .  S
C1069      C1070   1.415       .  A
C1070      C1071   1.518       .  S
C1071      F1075   1.384       .  S
C1071      F1076   1.382       .  S
C1071      F1077   1.382       .  S
C1074      F1078   1.375       .  S
C1074      F2207   1.374   1_455  S
C1074      F1080   1.386       .  S
F1079      C2202   1.374       .  S
C1081      C1082   1.437       .  A
C1081      C1086   1.429       .  A
C1081      H1088   1.069       .  S
C1082      C1083   1.451       .  A
C1083      C1084   1.438       .  A
C1083      C1090   1.524       .  S
C1084      C1085   1.413       .  A
C1084      H1089   1.085       .  S
C1085      C1086   1.413       .  A
C1086      C1087   1.521       .  S
C1087      F1091   1.383       .  S
C1087      F1092   1.383       .  S
C1087      F1093   1.382       .  S
C1090      F1094   1.382       .  S
C1090      F1095   1.375       .  S
C1090      F1096   1.386       .  S
C1097      C1098   1.413       .  A
C1097      C1102   1.431       .  A
C1097      H1104   1.081       .  S
C1098      C1099   1.407       .  A
C1099      C1100   1.425       .  A
C1099      C1106   1.519       .  S
C1100      C1101   1.436       .  A
C1100      H1105   1.064       .  S
C1101      C1102   1.446       .  A
C1102      C1103   1.522       .  S
C1103      F1107   1.378   1_565  S
C1103      F1108   1.384       .  S
C1103      F1109   1.376       .  S
C1106      F1110   1.382       .  S
C1106      F1111   1.385       .  S
C1106      F1112   1.384       .  S
C1113      C1114   1.415       .  A
C1113      C1118   1.437       .  A
C1113      H1120   1.085       .  S
C1114      C1115   1.421       .  A
C1115      C1116   1.439       .  A
C1115      C1122   1.519       .  S
C1116      C1117   1.439       .  A
C1116      H1121   1.072       .  S
C1117      C1118   1.457       .  A
C1118      C1119   1.521       .  S
C1119      F1123   1.383       .  S
C1119      F1124   1.365       .  S
C1119      F1125   1.384       .  S
C1122      F1126   1.383       .  S
C1122      F1127   1.383       .  S
C1122      F1128   1.385       .  S
O1129     Zr1165   2.604       .  S
O1129      C1140   1.327       .  A
O1130     Zr1164   2.595       .  S
O1130      C1141   1.325       .  A
O1131     Zr1137   2.391       .  S
O1131      C1142   1.282       .  A
O1132     Zr1137   2.373       .  S
O1132      C1143   1.276       .  A
O1133     Zr1167   2.400       .  S
O1133      C1143   1.284       .  A
O1134     Zr1166   2.405       .  S
O1134      C1142   1.283       .  A
O1135     Zr1137   2.419       .  S
O1135      C1141   1.287       .  A
O1136     Zr1137   2.422       .  S
O1136      C1140   1.288       .  A
Zr1137     O1138   2.331       .  S
Zr1137     O1139   2.339       .  S
Zr1137     O1147   2.346       .  S
Zr1137     O1145   2.330       .  S
O1138     Zr1164   2.358       .  S
O1138     Zr1167   2.309       .  S
O1139     Zr1165   2.377       .  S
O1139     Zr1166   2.348       .  S
C1140      C1678   1.552       .  S
C1141      C1537   1.537       .  S
C1142      C1566   1.461       .  S
C1143      C1582   1.436       .  S
H1144      O1145   0.966       .  S
O1145     Zr1164   2.385       .  S
O1145     Zr1166   2.351       .  S
H1146      O1147   0.968       .  S
O1147     Zr1165   2.389       .  S
O1147     Zr1167   2.324       .  S
O1148     Zr1164   2.582       .  S
O1148      C1171   1.322       .  A
O1149     Zr1165   2.607       .  S
O1149      C1172   1.328       .  A
O1150     Zr1166   2.422       .  S
O1150      C1173   1.290       .  A
O1151     Zr1167   2.397       .  S
O1151      C1174   1.284       .  A
O1152     Zr1167   2.425       .  S
O1152      C1175   1.290       .  A
O1153     Zr1166   2.424       .  S
O1153      C1176   1.288       .  A
O1154     Zr1168   2.378       .  S
O1154      C1177   1.277       .  A
O1155     Zr1168   2.427       .  S
O1155      C1178   1.289       .  A
O1156     Zr1166   2.439       .  S
O1156      C1177   1.291       .  A
O1157     Zr1167   2.340       .  S
O1157      C1178   1.270       .  A
O1158     Zr1164   2.517       .  S
O1158      C1173   1.309       .  A
O1159     Zr1165   2.605       .  S
O1159      C1176   1.328       .  A
O1160     Zr1165   2.549       .  S
O1160      C1175   1.315       .  A
O1161     Zr1164   2.575       .  S
O1161      C1174   1.319       .  A
O1162     Zr1168   2.432       .  S
O1162      C1171   1.289       .  A
O1163     Zr1168   2.401       .  S
O1163      C1172   1.285       .  A
Zr1164     O1170   2.390       .  S
Zr1164     O1182   2.354       .  S
Zr1165     O1169   2.375       .  S
Zr1165     O1180   2.346       .  S
Zr1166     O1170   2.348       .  S
Zr1166     O1180   2.324       .  S
Zr1167     O1169   2.328       .  S
Zr1167     O1182   2.344       .  S
Zr1168     O1169   2.333       .  S
Zr1168     O1170   2.343       .  S
Zr1168     O1182   2.313       .  S
Zr1168     O1180   2.346       .  S
C1171      C1553   1.537       .  S
C1172      C1662   1.548       .  S
C1173      C1502   1.493       .  S
C1174      C1518   1.541       .  S
C1175      C1633   1.531       .  S
C1176      C1649   1.547       .  S
C1177      C1614   1.447       .  S
C1178      C1598   1.418       .  S
H1179      O1180   0.961       .  S
H1181      O1182   0.966       .  S
N1183      C1187   1.341       .  A
N1184      C1755   1.339       .  A
N1184      C1192   1.346   1_565  A
N1185      C1190   1.345       .  A
N1185      H1216   1.036       .  S
N1186      C1757   1.351   1_545  A
N1186      C1194   1.354       .  A
C1187      C1195   1.376       .  A
C1187      C1203   1.384       .  A
C1188      C1204   1.412       .  A
C1188      C1196   1.390       .  A
C1189      C1197   1.381       .  A
C1189      C1206   1.395       .  A
C1190      C1205   1.407   1_455  A
C1190      C1198   1.385       .  A
C1191      N1748   1.335       .  A
C1191      C1203   1.395       .  A
C1191      C1199   1.394       .  A
C1192      C1206   1.391       .  A
C1192      C1200   1.380   1_545  A
C1193      N1750   1.352       .  A
C1193      C1201   1.377       .  A
C1193      C1204   1.393       .  A
C1194      C1202   1.381       .  A
C1194      C1205   1.405       .  A
C1195      H1207   1.081       .  S
C1196      H1208   1.078       .  S
C1197      H1209   1.080       .  S
C1198      H1210   1.070       .  S
C1199      C1764   1.355       .  A
C1199      H1211   1.081       .  S
C1200      C1763   1.364       .  A
C1200      H1212   1.083       .  S
C1201      C1766   1.365       .  A
C1201      H1213   1.083       .  S
C1202      C1765   1.364   1_545  A
C1202      H1214   1.083   1_655  S
C1203      C1601   1.436       .  S
C1204      C1617   1.461       .  S
C1205      C1569   1.476       .  S
C1206      C1585   1.455       .  S
O1217     Zr1817   2.582       .  S
O1217      C1228   1.322       .  A
O1218     Zr1252   2.585       .  S
O1218      C1229   1.322       .  A
O1219      C1230   1.292       .  A
O1220     Zr1225   2.406   1_655  S
O1220      C1231   1.285       .  A
O1221     Zr1255   2.428       .  S
O1221      C1231   1.285   1_554  A
O1222     Zr1254   2.390   1_556  S
O1222      C1230   1.281       .  A
O1223     Zr1225   2.450   1_554  S
O1223      C1229   1.294   1_455  A
O1224     Zr1225   2.421   1_655  S
O1224      C1228   1.289       .  A
Zr1225     O1226   2.339   1_456  S
Zr1225     O1235   2.355   1_455  S
O1226     Zr1252   2.362       .  S
O1226     Zr1255   2.339       .  S
O1227     Zr1254   2.339   1_556  S
C1228      C1486   1.535       .  S
C1229      C1342   1.546       .  S
C1230      C1374   1.461       .  S
C1231      C1390   1.485       .  S
H1232      O1233   0.965       .  S
O1233     Zr1254   2.364       .  S
H1234      O1235   0.965       .  S
O1235     Zr1817   2.388       .  S
O1235     Zr1255   2.350   1_556  S
O1236     Zr1816   2.537   1_455  S
O1236      C1259   1.313       .  A
O1237     Zr1253   2.619       .  S
O1237      C1260   1.330   1_455  A
O1238     Zr1254   2.435       .  S
O1238      C1261   1.292       .  A
O1239     Zr1255   2.397       .  S
O1239      C1262   1.284       .  A
O1240     Zr1819   2.410   1_556  S
O1240      C1263   1.286       .  A
O1241     Zr1818   2.419   1_556  S
O1241      C1264   1.288       .  A
O1242      C1265   1.265       .  A
O1243     Zr1256   2.401       .  S
O1243      C1266   1.283       .  A
O1244     Zr1818   2.424       .  S
O1244      C1265   1.289       .  A
O1245     Zr1819   2.447       .  S
O1245      C1266   1.288       .  A
O1246      C1261   1.316       .  A
O1247      C1264   1.325   1_565  A
O1248     Zr1253   2.560   1_655  S
O1248      C1263   1.318       .  A
O1249     Zr1252   2.580       .  S
O1249      C1262   1.322       .  A
O1250     Zr1256   2.420   1_455  S
O1250      C1259   1.288       .  A
O1251     Zr1256   2.451   1_556  S
O1251      C1260   1.293       .  A
Zr1252     O1800   2.592       .  S
Zr1252     O1834   2.378       .  S
Zr1253     O1781   2.668   1_545  S
Zr1253     O1799   2.354   1_445  S
Zr1253     O1257   2.396   1_455  S
Zr1254     O1805   2.429   1_554  S
Zr1254     O1808   2.439       .  S
Zr1254     O1822   2.320       .  S
Zr1254     O1832   2.332   1_554  S
Zr1255     O1804   2.405   1_554  S
Zr1255     O1809   2.460       .  S
Zr1255     O1821   2.340   1_554  S
Zr1255     O1834   2.334       .  S
Zr1256     O1257   2.335   1_554  S
Zr1256     O1270   2.348       .  S
O1257     Zr1819   2.334   1_556  S
O1258     Zr1818   2.324       .  S
C1259      C1358   1.506       .  S
C1260      C1470   1.560       .  S
C1261      C1310   1.530       .  S
C1262      C1326   1.529       .  S
C1263      C1438   1.523       .  S
C1264      C1454   1.538       .  S
C1265      C1422   1.459       .  S
C1266      C1406   1.499       .  S
H1267      O1268   0.964       .  S
O1268     Zr1818   2.336   1_556  S
H1269      O1270   0.976       .  S
O1270     Zr1816   2.388       .  S
O1270     Zr1819   2.320       .  S
N1271      C1276   1.346       .  A
N1271      C1275   1.347       .  A
N1271      H1303   1.038       .  S
N1272      C1279   1.335       .  A
N1272      C1280   1.344       .  A
N1273      C1278   1.340       .  A
N1273      C1277   1.351       .  A
N1273      H1304   1.043       .  S
N1274      C1281   1.343   1_554  A
N1274      C1282   1.345       .  A
C1275      C1283   1.387       .  A
C1275      C1291   1.415       .  A
C1276      C1292   1.415       .  A
C1276      C1284   1.390       .  A
C1277      C1285   1.389       .  A
C1277      C1294   1.422       .  A
C1278      C1293   1.406       .  A
C1278      C1286   1.382       .  A
C1279      C1291   1.398   1_554  A
C1279      C1287   1.392       .  A
C1280      C1294   1.386       .  A
C1280      C1288   1.382       .  A
C1281      C1289   1.394   1_556  A
C1281      C1292   1.416       .  A
C1282      C1290   1.371       .  A
C1282      C1293   1.385       .  A
C1283      C1284   1.383       .  A
C1283      H1295   1.083       .  S
C1284      H1296   1.082       .  S
C1285      C1286   1.386       .  A
C1285      H1297   1.076       .  S
C1286      H1298   1.082       .  S
C1287      C1288   1.372       .  A
C1287      H1299   1.082       .  S
C1288      H1300   1.082       .  S
C1289      C1290   1.369       .  A
C1289      H1301   1.078       .  S
C1290      H1302   1.078       .  S
C1291      C1393   1.470       .  S
C1292      C1377   1.475       .  S
C1293      C1425   1.467       .  S
C1294      C1409   1.502       .  S
C1305      C1345   1.661       .  S
C1305      C1361   1.644       .  S
C1305      C1646   1.659   1_455  S
C1306      C1877   1.639       .  S
C1306      C1893   1.643       .  S
C1306      C2229   1.644       .  S
C1306      C1681   1.631   1_565  S
C1307      C1473   1.653       .  S
C1307      C1489   1.628       .  S
C1307      C1521   1.615       .  S
C1308      C2005   1.616       .  S
C1308      C2021   1.627       .  S
C1308      C2098   1.643       .  S
C1308      C1550   1.634       .  S
C1309      C1874   1.390   1_545  A
C1309      C1314   1.431       .  A
C1309      H1316   1.082       .  S
C1310      C1873   1.408       .  A
C1310      C1311   1.411       .  A
C1311      C1312   1.427       .  A
C1311      C1318   1.520       .  S
C1312      C1313   1.440       .  A
C1312      H1317   1.070       .  S
C1313      C1878   1.455       .  A
C1313      C1870   1.642       .  S
C1314      C1877   1.477   1_545  A
C1314      C1315   1.531       .  S
C1315      F1319   1.386       .  S
C1315      F1320   1.377       .  S
C1315      F1321   1.375       .  S
C1318      F1322   1.383       .  S
C1318      F1323   1.383       .  S
C1318      F1324   1.385       .  S
C1325      C1326   1.417       .  A
C1325      C1330   1.436       .  A
C1325      H1332   1.082       .  S
C1326      C1891   1.408       .  A
C1327      C1890   1.410   1_545  A
C1327      C1328   1.432   1_545  A
C1327      C1334   1.513       .  S
C1328      C1893   1.439       .  A
C1328      H1333   1.076   1_565  S
C1329      C1892   1.437       .  A
C1329      C1330   1.447       .  A
C1329      C1870   1.641       .  S
C1330      C1331   1.530       .  S
C1331      F1335   1.380       .  S
C1331      F1900   1.375       .  S
C1331      F1337   1.384       .  S
C1334      F1338   1.381       .  S
C1334      F1903   1.381   1_545  S
C1334      F1904   1.385       .  S
F1336      C1895   1.376       .  S
F1339      C1898   1.383       .  S
F1340      C1898   1.385       .  S
C1341      C1342   1.402   1_455  A
C1341      C1346   1.431       .  A
C1341      H1348   1.085       .  S
C1343      C1344   1.437       .  A
C1343      C1350   1.513       .  S
C1344      H1349   1.076       .  S
C1345      C1346   1.456       .  A
C1346      C1347   1.511       .  S
C1347      F1351   1.379       .  S
C1347      F1352   1.387       .  S
C1350      F1355   1.380       .  S
C1350      F1356   1.385       .  S
C1357      C1362   1.433       .  A
C1357      H1364   1.085       .  S
C1358      C1359   1.398   1_455  A
C1359      C1360   1.429       .  A
C1359      C1366   1.511       .  S
C1360      C1361   1.422   1_655  A
C1360      H1365   1.076       .  S
C1362      C1363   1.527       .  S
C1363      F1367   1.387       .  S
C1363      F1368   1.383       .  S
C1363      F1369   1.357       .  S
C1366      F1370   1.382       .  S
C1366      F1371   1.376       .  S
C1366      F1372   1.374       .  S
C1373      C1374   1.395       .  A
C1373      C1378   1.395       .  A
C1373      H1380   1.085   1_556  S
C1374      C1375   1.415       .  A
C1375      C1376   1.397       .  A
C1375      C1382   1.509       .  S
C1376      C1377   1.394       .  A
C1376      H1381   1.084       .  S
C1377      C1378   1.422       .  A
C1378      C1379   1.513   1_556  S
C1379      F1383   1.381       .  S
C1379      F1384   1.374       .  S
C1379      F1385   1.383       .  S
C1382      F1386   1.382       .  S
C1382      F1387   1.378       .  S
C1382      F1388   1.383       .  S
C1389      C1390   1.412       .  A
C1389      C1394   1.401       .  A
C1389      H1396   1.083   1_556  S
C1390      C1391   1.424       .  A
C1391      C1392   1.396       .  A
C1391      C1398   1.521       .  S
C1392      C1393   1.400       .  A
C1392      H1397   1.078       .  S
C1393      C1394   1.408       .  A
C1394      C1395   1.530       .  S
C1395      F1399   1.383       .  S
C1395      F1400   1.376       .  S
C1395      F1401   1.384       .  S
C1398      F1402   1.378       .  S
C1398      F1403   1.384   1_556  S
C1398      F1404   1.383       .  S
C1405      C1406   1.410       .  A
C1405      C1410   1.405       .  A
C1405      H1412   1.082       .  S
C1406      C1407   1.418       .  A
C1407      C1408   1.407       .  A
C1407      C1414   1.519       .  S
C1408      C1409   1.405       .  A
C1408      H1413   1.064       .  S
C1409      C1410   1.424       .  A
C1410      C1411   1.532       .  S
C1411      F1415   1.377       .  S
C1411      F1416   1.384       .  S
C1411      F1417   1.373       .  S
C1414      F1418   1.379       .  S
C1414      F1419   1.382   1_554  S
C1414      F1420   1.378       .  S
C1421      C1422   1.395       .  A
C1421      C1426   1.389       .  A
C1421      H1428   1.085   1_554  S
C1422      C1423   1.423       .  A
C1423      C1424   1.388       .  A
C1423      C1430   1.524       .  S
C1424      C1425   1.397       .  A
C1424      H1429   1.080       .  S
C1425      C1426   1.418       .  A
C1426      C1427   1.503       .  S
C1427      F1431   1.386   1_554  S
C1427      F1432   1.378       .  S
C1427      F1433   1.382       .  S
C1430      F1434   1.382       .  S
C1430      F1435   1.385   1_554  S
C1430      F1436   1.385       .  S
C1437      C1438   1.410       .  A
C1437      C1442   1.429       .  A
C1437      H1444   1.081       .  S
C1438      C2003   1.413   1_545  A
C1439      C2002   1.405       .  A
C1439      C1440   1.414       .  A
C1439      C1446   1.519       .  S
C1440      C2005   1.428       .  A
C1440      H1445   1.069       .  S
C1441      C2004   1.432   1_545  A
C1441      C1442   1.453       .  A
C1441      C1872   1.619       .  S
C1442      C1443   1.539       .  S
C1443      F1447   1.384       .  S
C1443      F2012   1.379       .  S
C1443      F1449   1.375       .  S
C1446      F1450   1.383       .  S
C1446      F2015   1.384       .  S
C1446      F1452   1.380       .  S
F1448      C2007   1.379       .  S
F1451      C2010   1.383       .  S
C1453      C2018   1.408       .  A
C1453      C1458   1.431       .  A
C1453      H1460   1.082       .  S
C1454      C2017   1.414   1_545  A
C1454      C1455   1.413       .  A
C1455      C1456   1.430       .  A
C1455      C1462   1.515       .  S
C1456      C1457   1.429       .  A
C1456      H1461   1.067       .  S
C1457      C2022   1.455   1_545  A
C1457      C1872   1.635       .  S
C1458      C2021   1.454       .  A
C1458      C1459   1.533       .  S
C1459      F1463   1.381       .  S
C1459      F1464   1.374       .  S
C1459      F1465   1.384       .  S
C1462      F1466   1.383       .  S
C1462      F1467   1.383       .  S
C1462      F1468   1.382       .  S
C1469      C1474   1.433       .  A
C1469      H1476   1.082       .  S
C1470      C1471   1.426       .  A
C1471      C1472   1.445       .  A
C1471      C1478   1.517       .  S
C1472      H1477   1.076       .  S
C1473      C1474   1.483       .  A
C1474      C1475   1.532       .  S
C1475      F1479   1.381       .  S
C1475      F1480   1.378       .  S
C1475      F1481   1.367       .  S
C1478      F1482   1.384       .  S
C1478      F1483   1.383       .  S
C1478      F1484   1.385       .  S
C1485      C1490   1.430       .  A
C1485      H1492   1.079       .  S
C1486      C1487   1.420       .  A
C1487      C1488   1.417       .  A
C1487      C1494   1.487       .  S
C1488      H1493   1.083       .  S
C1489      C1490   1.435       .  A
C1490      C1491   1.532       .  S
C1491      F1495   1.377       .  S
C1491      F1496   1.386       .  S
C1491      F1497   1.376       .  S
C1494      F1498   1.380       .  S
C1494      F1499   1.377       .  S
C1494      F1500   1.384       .  S
C1501      C1502   1.403       .  A
C1501      C1506   1.422       .  A
C1501      H1508   1.086       .  S
C1502      C1503   1.402       .  A
C1503      C1504   1.412       .  A
C1503      C1510   1.525       .  S
C1504      C1505   1.442       .  A
C1504      H1509   1.069       .  S
C1505      C1506   1.456       .  A
C1506      C1507   1.523       .  S
C1507      F1511   1.383       .  S
C1507      F1513   1.383       .  S
C1510      F1514   1.383       .  S
C1510      F1515   1.383       .  S
C1510      F1516   1.385       .  S
C1517      C1518   1.425       .  A
C1517      C1522   1.429       .  A
C1517      H1524   1.082       .  S
C1518      C1519   1.411       .  A
C1519      C1520   1.426       .  A
C1519      C1526   1.518       .  S
C1520      C1521   1.435       .  A
C1520      H1525   1.072       .  S
C1521      C1522   1.447       .  A
C1522      C1523   1.533       .  S
C1523      F1527   1.385       .  S
C1523      F1529   1.377       .  S
C1526      F1530   1.380       .  S
C1526      F1531   1.384       .  S
C1526      F1532   1.384       .  S
C1533      C1534   1.444       .  A
C1533      C1538   1.433       .  A
C1533      H1540   1.073       .  S
C1534      C1535   1.449       .  A
C1534      C1872   1.649       .  S
C1535      C1536   1.433       .  A
C1535      C1542   1.521       .  S
C1536      C1537   1.411       .  A
C1536      H1541   1.078       .  S
C1537      C1538   1.414       .  A
C1538      C1539   1.520       .  S
C1539      F1543   1.384       .  S
C1539      F1544   1.383       .  S
C1539      F1545   1.383       .  S
C1542      F1546   1.379       .  S
C1542      F1547   1.365   1_545  S
C1542      F1548   1.384       .  S
C1549      C1550   1.432       .  A
C1549      C1554   1.425       .  A
C1549      H1556   1.073       .  S
C1550      C1551   1.453       .  A
C1551      C1552   1.438       .  A
C1551      C1558   1.528       .  S
C1552      C1553   1.410       .  A
C1552      H1557   1.080       .  S
C1553      C1554   1.415       .  A
C1554      C1555   1.511       .  S
C1555      F1559   1.385       .  S
C1555      F1560   1.379       .  S
C1555      F1561   1.382       .  S
C1558      F1562   1.367       .  S
C1558      F1563   1.379       .  S
C1558      F1564   1.384       .  S
C1565      C1566   1.397       .  A
C1565      C1570   1.395       .  A
C1565      H1572   1.085       .  S
C1566      C1567   1.400       .  A
C1567      C1568   1.393       .  A
C1567      C1574   1.514       .  S
C1568      C1569   1.406       .  A
C1568      H1573   1.084       .  S
C1569      C1570   1.426       .  A
C1570      C1571   1.513       .  S
C1571      F1575   1.385       .  S
C1571      F1576   1.377       .  S
C1571      F1577   1.381       .  S
C1574      F1578   1.384       .  S
C1574      F1579   1.378       .  S
C1574      F1580   1.383       .  S
C1581      C1582   1.388       .  A
C1581      C1586   1.391       .  A
C1581      H1588   1.084       .  S
C1582      C1583   1.411       .  A
C1583      C1584   1.393       .  A
C1583      C1590   1.513       .  S
C1584      C1585   1.395       .  A
C1584      H1589   1.085       .  S
C1585      C1586   1.412       .  A
C1586      C1587   1.511       .  S
C1587      F1591   1.376       .  S
C1587      F1592   1.382       .  S
C1587      F1593   1.382   1_545  S
C1590      F1594   1.381       .  S
C1590      F1595   1.382       .  S
C1590      F1596   1.377       .  S
C1597      C1598   1.396       .  A
C1597      C1602   1.381       .  A
C1597      H1604   1.082       .  S
C1598      C1599   1.410       .  A
C1599      C1600   1.387       .  A
C1599      C1606   1.517       .  S
C1600      C1601   1.398       .  A
C1600      H1605   1.086       .  S
C1601      C1602   1.409       .  A
C1602      C1603   1.526       .  S
C1603      F1607   1.376       .  S
C1603      F1608   1.383       .  S
C1603      F1609   1.379       .  S
C1606      F1610   1.384       .  S
C1606      F1611   1.380       .  S
C1606      F1612   1.381       .  S
C1613      C1614   1.404       .  A
C1613      C1618   1.402       .  A
C1613      H1620   1.081       .  S
C1614      C1615   1.400       .  A
C1615      C1616   1.390       .  A
C1615      C1622   1.510       .  S
C1616      C1617   1.398       .  A
C1616      H1621   1.067       .  S
C1617      C1618   1.407       .  A
C1618      C1619   1.515       .  S
C1619      F1623   1.383       .  S
C1619      F1624   1.383       .  S
C1619      F1625   1.380       .  S
C1622      F1626   1.382       .  S
C1622      F1627   1.383       .  S
C1622      F1628   1.382       .  S
C1629      C1630   1.442       .  A
C1629      C1634   1.436       .  A
C1629      H1636   1.070       .  S
C1630      C1631   1.445       .  A
C1631      C1632   1.428       .  A
C1631      C1638   1.518       .  S
C1632      C1633   1.406       .  A
C1632      H1637   1.081       .  S
C1633      C1634   1.415       .  A
C1634      C1635   1.521       .  S
C1635      F1639   1.384       .  S
C1635      F1640   1.382       .  S
C1635      F1641   1.383       .  S
C1638      F1642   1.374       .  S
C1638      F1644   1.381       .  S
C1645      C1646   1.437       .  A
C1645      C1650   1.431       .  A
C1645      H1652   1.069       .  S
C1646      C1647   1.449       .  A
C1647      C1648   1.445       .  A
C1647      C1654   1.523       .  S
C1648      C1649   1.417       .  A
C1648      H1653   1.082       .  S
C1649      C1650   1.413       .  A
C1650      C1651   1.512       .  S
C1651      F1655   1.381       .  S
C1651      F1656   1.381       .  S
C1651      F1657   1.383       .  S
C1654      F1658   1.375       .  S
C1654      F1659   1.374   1_655  S
C1654      F1660   1.382   1_655  S
C1661      C1662   1.421       .  A
C1661      C1666   1.439       .  A
C1661      H1668   1.081       .  S
C1662      C1663   1.409       .  A
C1663      C1664   1.429       .  A
C1663      C1670   1.516       .  S
C1664      C1665   1.438       .  A
C1664      H1669   1.067       .  S
C1665      C1666   1.451       .  A
C1665      C1870   1.648       .  S
C1666      C1667   1.528       .  S
C1667      F1671   1.385       .  S
C1667      F1672   1.375       .  S
C1667      F1673   1.379       .  S
C1670      F1674   1.384       .  S
C1670      F1675   1.379       .  S
C1670      F1676   1.384       .  S
C1677      C1678   1.425       .  A
C1677      C1682   1.437       .  A
C1677      H1684   1.083       .  S
C1678      C1679   1.415       .  A
C1679      C1680   1.425       .  A
C1679      C1686   1.509       .  S
C1680      C1681   1.433       .  A
C1680      H1685   1.080       .  S
C1681      C1682   1.447       .  A
C1682      C1683   1.531       .  S
C1683      F1687   1.386       .  S
C1683      F1688   1.376   1_545  S
C1683      F1689   1.375   1_545  S
C1686      F1690   1.380       .  S
C1686      F1691   1.379       .  S
C1686      F1692   1.384       .  S
O1693     Zr1729   2.591       .  S
O1693      C1704   1.324       .  A
O1694     Zr1728   2.597       .  S
O1694      C1705   1.325       .  A
O1695     Zr1701   2.375       .  S
O1695      C1706   1.281       .  A
O1696     Zr1701   2.361       .  S
O1696      C1707   1.273       .  A
O1697     Zr1731   2.392       .  S
O1697      C1707   1.281       .  A
O1698     Zr1730   2.408       .  S
O1698      C1706   1.282       .  A
O1699     Zr1701   2.401       .  S
O1699      C1705   1.284       .  A
O1700     Zr1701   2.417       .  S
O1700      C1704   1.287       .  A
Zr1701     O1702   2.321       .  S
Zr1701     O1703   2.327       .  S
Zr1701     O1711   2.334       .  S
Zr1701     O1709   2.324       .  S
O1702     Zr1728   2.351       .  S
O1702     Zr1731   2.312       .  S
O1703     Zr1729   2.378       .  S
O1703     Zr1730   2.359       .  S
C1704      C2242   1.541       .  S
C1705      C2101   1.534       .  S
C1706      C2130   1.466       .  S
C1707      C2146   1.418       .  S
H1708      O1709   0.963       .  S
O1709     Zr1728   2.380       .  S
O1709     Zr1730   2.352       .  S
H1710      O1711   0.965       .  S
O1711     Zr1729   2.373       .  S
O1711     Zr1731   2.322       .  S
O1712     Zr1728   2.602       .  S
O1712      C1735   1.327       .  A
O1713     Zr1729   2.578       .  S
O1713      C1736   1.321       .  A
O1714     Zr1730   2.454       .  S
O1714      C1737   1.295       .  A
O1715     Zr1731   2.415       .  S
O1715      C1738   1.287       .  A
O1716     Zr1731   2.425       .  S
O1716      C1739   1.290       .  A
O1717     Zr1730   2.431       .  S
O1717      C1740   1.291       .  A
O1718     Zr1732   2.370       .  S
O1718      C1741   1.276       .  A
O1719     Zr1732   2.394       .  S
O1719      C1742   1.282       .  A
O1720     Zr1730   2.452       .  S
O1720      C1741   1.292       .  A
O1721     Zr1731   2.351       .  S
O1721      C1742   1.272       .  A
O1722     Zr1728   2.521       .  S
O1722      C1737   1.310       .  A
O1723     Zr1729   2.566       .  S
O1723      C1740   1.320       .  A
O1724     Zr1729   2.557       .  S
O1724      C1739   1.316       .  A
O1725     Zr1728   2.570       .  S
O1725      C1738   1.319       .  A
O1726     Zr1732   2.421       .  S
O1726      C1735   1.287       .  A
O1727     Zr1732   2.442       .  S
O1727      C1736   1.292       .  A
Zr1728     O1734   2.385       .  S
Zr1728     O1746   2.371       .  S
Zr1729     O1733   2.365       .  S
Zr1729     O1744   2.381       .  S
Zr1730     O1734   2.339       .  S
Zr1730     O1744   2.347       .  S
Zr1731     O1733   2.333       .  S
Zr1731     O1746   2.344       .  S
Zr1732     O1733   2.328       .  S
Zr1732     O1734   2.343       .  S
Zr1732     O1746   2.342       .  S
Zr1732     O1744   2.336       .  S
C1735      C2117   1.547       .  S
C1736      C2226   1.548       .  S
C1737      C2066   1.511       .  S
C1738      C2082   1.548       .  S
C1739      C2197   1.531       .  S
C1740      C2213   1.529       .  S
C1741      C2178   1.449       .  S
C1742      C2162   1.421       .  S
H1743      O1744   0.964       .  S
H1745      O1746   0.958       .  S
N1747      C1751   1.336       .  A
N1748      C1756   1.342       .  A
N1749      C1754   1.333   1_455  A
N1749      H1780   1.039   1_455  S
N1750      C1758   1.349       .  A
C1751      C1759   1.389       .  A
C1751      C1767   1.385       .  A
C1752      C1768   1.387       .  A
C1752      C1760   1.385       .  A
C1753      C1761   1.377       .  A
C1753      C1770   1.384       .  A
C1754      C1769   1.379       .  A
C1754      C1762   1.378   1_655  A
C1755      C1767   1.402       .  A
C1755      C1763   1.393       .  A
C1756      C1770   1.378       .  A
C1756      C1764   1.380       .  A
C1757      C1765   1.388       .  A
C1757      C1768   1.399       .  A
C1758      C1766   1.392       .  A
C1758      C1769   1.410       .  A
C1759      H1771   1.083       .  S
C1760      H1772   1.080       .  S
C1761      H1773   1.081       .  S
C1762      H1774   1.082       .  S
C1763      H1775   1.082       .  S
C1764      H1776   1.083       .  S
C1765      H1777   1.083       .  S
C1766      H1778   1.083   1_655  S
C1767      C2165   1.441       .  S
C1768      C2181   1.472       .  S
C1769      C2133   1.485       .  S
C1770      C2149   1.441       .  S
O1781      C1792   1.341       .  A
O1782     Zr1816   2.597   1_565  S
O1782      C1793   1.323   1_655  A
O1783      C1794   1.292       .  A
O1784     Zr1789   2.398   1_656  S
O1784      C1795   1.284       .  A
O1785     Zr1819   2.392   1_566  S
O1785      C1795   1.278       .  A
O1786     Zr1818   2.366   1_566  S
O1786      C1794   1.276       .  A
O1787     Zr1789   2.448       .  S
O1787      C1793   1.292       .  A
O1788     Zr1789   2.360   1_556  S
O1788      C1792   1.271       .  A
Zr1789     O1790   2.330   1_455  S
Zr1789     O1799   2.353   1_454  S
O1790     Zr1816   2.353   1_565  S
O1790     Zr1819   2.354   1_565  S
O1791     Zr1818   2.331   1_566  S
C1792      C2050   1.566       .  S
C1793      C1906   1.557   1_455  S
C1794      C1938   1.453       .  S
C1795      C1954   1.470       .  S
H1796      O1797   0.962       .  S
O1797     Zr1818   2.360   1_565  S
H1798      O1799   0.964       .  S
O1799     Zr1819   2.340   1_566  S
O1800      C1823   1.323       .  A
O1801     Zr1817   2.593       .  S
O1801      C1824   1.324       .  A
O1802     Zr1818   2.432   1_565  S
O1802      C1825   1.290       .  A
O1803     Zr1819   2.397   1_565  S
O1803      C1826   1.284       .  A
O1804      C1827   1.286       .  A
O1805      C1828   1.290       .  A
O1806      C1829   1.264   1_556  A
O1807     Zr1820   2.357       .  S
O1807      C1830   1.275       .  A
O1808      C1829   1.292       .  A
O1809      C1830   1.290       .  A
O1810      C1825   1.312       .  A
O1811      C1828   1.321       .  A
O1812     Zr1817   2.542       .  S
O1812      C1827   1.314       .  A
O1813     Zr1816   2.595       .  S
O1813      C1826   1.324   1_545  A
O1814     Zr1820   2.424       .  S
O1814      C1823   1.287       .  A
O1815     Zr1820   2.433   1_556  S
O1815      C1824   1.288       .  A
Zr1817     O1821   2.377       .  S
Zr1820     O1821   2.317   1_554  S
Zr1820     O1834   2.339       .  S
C1823      C1922   1.541       .  S
C1824      C2034   1.548       .  S
C1825      C1874   1.509       .  S
C1826      C1890   1.555       .  S
C1827      C2002   1.509       .  S
C1828      C2018   1.532       .  S
C1829      C1986   1.450       .  S
C1830      C1970   1.491       .  S
H1831      O1832   0.967       .  S
H1833      O1834   0.972       .  S
N1835      C1840   1.349       .  A
N1835      C1839   1.344       .  A
N1835      H1867   1.039       .  S
N1836      C1843   1.345       .  A
N1836      C1844   1.352   1_556  A
N1837      C1842   1.336       .  A
N1837      C1841   1.351       .  A
N1837      H1868   1.041       .  S
N1838      C1845   1.344       .  A
N1838      C1846   1.340       .  A
C1839      C1847   1.393       .  A
C1839      C1855   1.410       .  A
C1840      C1856   1.395       .  A
C1840      C1848   1.379       .  A
C1841      C1849   1.384       .  A
C1841      C1858   1.406       .  A
C1842      C1857   1.404       .  A
C1842      C1850   1.391       .  A
C1843      C1855   1.412       .  A
C1843      C1851   1.398   1_556  A
C1844      C1858   1.382       .  A
C1844      C1852   1.374       .  A
C1845      C1853   1.381       .  A
C1845      C1856   1.388       .  A
C1846      C1854   1.389       .  A
C1846      C1857   1.398   1_556  A
C1847      C1848   1.368       .  A
C1847      H1859   1.082       .  S
C1848      H1860   1.080       .  S
C1849      C1850   1.378       .  A
C1849      H1861   1.083       .  S
C1850      H1862   1.083       .  S
C1851      C1852   1.359       .  A
C1851      H1863   1.079       .  S
C1852      H1864   1.083       .  S
C1853      C1854   1.361       .  A
C1853      H1865   1.082       .  S
C1854      H1866   1.079       .  S
C1855      C1957   1.459       .  S
C1856      C1941   1.473       .  S
C1857      C1989   1.447       .  S
C1858      C1973   1.497       .  S
C1869      C1909   1.672       .  S
C1869      C1925   1.653       .  S
C1869      C2210   1.644   1_455  S
C1870      C2245   1.642       .  S
C1871      C2037   1.649       .  S
C1871      C2053   1.630       .  S
C1871      C2085   1.651       .  S
C1872      C2114   1.650   1_545  S
C1873      C1878   1.429       .  A
C1873      H1880   1.085       .  S
C1874      C1875   1.413       .  A
C1875      C1876   1.419       .  A
C1875      C1882   1.518       .  S
C1876      C1877   1.432       .  A
C1876      H1881   1.081       .  S
C1878      C1879   1.522       .  S
C1879      F1883   1.380       .  S
C1879      F1884   1.366       .  S
C1879      F1885   1.386       .  S
C1882      F1886   1.382       .  S
C1882      F1887   1.381       .  S
C1882      F1888   1.384       .  S
C1889      C1890   1.420       .  A
C1889      C1894   1.433       .  A
C1889      H1896   1.078       .  S
C1891      C1892   1.420       .  A
C1891      C1898   1.518       .  S
C1892      H1897   1.067       .  S
C1893      C1894   1.451       .  A
C1894      C1895   1.527       .  S
C1895      F1899   1.378   1_565  S
C1895      F1901   1.385   1_565  S
C1898      F1902   1.383       .  S
C1905      C1906   1.403   1_455  A
C1905      C1910   1.434       .  A
C1905      H1912   1.085       .  S
C1907      C1908   1.437       .  A
C1907      C1914   1.517       .  S
C1908      H1913   1.063       .  S
C1909      C1910   1.453       .  A
C1910      C1911   1.506       .  S
C1911      F1915   1.387       .  S
C1911      F1916   1.368       .  S
C1914      F1919   1.382       .  S
C1914      F1920   1.384       .  S
C1921      C1926   1.449       .  A
C1921      H1928   1.083       .  S
C1922      C1923   1.417       .  A
C1923      C1924   1.437       .  A
C1923      C1930   1.511       .  S
C1924      C1925   1.427   1_655  A
C1924      H1929   1.082       .  S
C1926      C1927   1.520       .  S
C1927      F1931   1.382       .  S
C1927      F1932   1.379       .  S
C1927      F1933   1.380       .  S
C1930      F1934   1.379       .  S
C1930      F1935   1.374       .  S
C1930      F1936   1.382       .  S
C1937      C1938   1.389       .  A
C1937      C1942   1.390       .  A
C1937      H1944   1.085   1_556  S
C1938      C1939   1.421       .  A
C1939      C1940   1.398       .  A
C1939      C1946   1.513       .  S
C1940      C1941   1.393       .  A
C1940      H1945   1.081       .  S
C1941      C1942   1.425       .  A
C1942      C1943   1.513       .  S
C1943      F1947   1.369       .  S
C1943      F1948   1.383   1_556  S
C1943      F1949   1.383   1_556  S
C1946      F1950   1.369       .  S
C1946      F1951   1.383       .  S
C1946      F1952   1.376       .  S
C1953      C1954   1.413       .  A
C1953      C1958   1.388       .  A
C1953      H1960   1.073       .  S
C1954      C1955   1.426       .  A
C1955      C1956   1.392       .  A
C1955      C1962   1.525       .  S
C1956      C1957   1.400       .  A
C1956      H1961   1.082       .  S
C1957      C1958   1.393       .  A
C1958      C1959   1.517       .  S
C1959      F1963   1.381       .  S
C1959      F1964   1.380       .  S
C1959      F1965   1.380       .  S
C1962      F1966   1.381       .  S
C1962      F1967   1.383   1_556  S
C1962      F1968   1.383       .  S
C1969      C1970   1.413       .  A
C1969      C1974   1.390       .  A
C1969      H1976   1.081       .  S
C1970      C1971   1.413       .  A
C1971      C1972   1.408       .  A
C1971      C1978   1.518       .  S
C1972      C1973   1.413       .  A
C1972      H1977   1.070       .  S
C1973      C1974   1.419       .  A
C1974      C1975   1.530       .  S
C1975      F1979   1.384       .  S
C1975      F1980   1.384       .  S
C1975      F1981   1.377       .  S
C1978      F1982   1.384       .  S
C1978      F1983   1.380   1_554  S
C1978      F1984   1.382       .  S
C1985      C1986   1.396   1_556  A
C1985      C1990   1.387       .  A
C1985      H1992   1.084       .  S
C1986      C1987   1.427       .  A
C1987      C1988   1.383       .  A
C1987      C1994   1.523       .  S
C1988      C1989   1.384       .  A
C1988      H1993   1.084       .  S
C1989      C1990   1.418   1_554  A
C1990      C1991   1.522       .  S
C1991      F1995   1.373       .  S
C1991      F1996   1.381       .  S
C1991      F1997   1.386       .  S
C1994      F1998   1.371       .  S
C1994      F1999   1.384   1_554  S
C1994      F2000   1.385       .  S
C2001      C2002   1.412       .  A
C2001      C2006   1.429       .  A
C2001      H2008   1.081       .  S
C2003      C2004   1.427       .  A
C2003      C2010   1.519       .  S
C2004      H2009   1.074       .  S
C2005      C2006   1.449       .  A
C2006      C2007   1.535       .  S
C2007      F2011   1.383       .  S
C2007      F2013   1.376       .  S
C2010      F2014   1.384       .  S
C2010      F2016   1.384       .  S
C2017      C2022   1.436       .  A
C2017      H2024   1.081       .  S
C2018      C2019   1.419       .  A
C2019      C2020   1.431       .  A
C2019      C2026   1.516       .  S
C2020      C2021   1.430       .  A
C2020      H2025   1.074       .  S
C2022      C2023   1.535       .  S
C2023      F2027   1.379       .  S
C2023      F2028   1.375       .  S
C2023      F2029   1.383       .  S
C2026      F2030   1.383       .  S
C2026      F2031   1.382       .  S
C2026      F2032   1.385       .  S
C2033      C2038   1.435       .  A
C2033      H2040   1.084       .  S
C2034      C2035   1.428       .  A
C2035      C2036   1.442       .  A
C2035      C2042   1.517       .  S
C2036      H2041   1.079       .  S
C2037      C2038   1.456       .  A
C2038      C2039   1.522       .  S
C2039      F2043   1.388       .  S
C2039      F2044   1.379       .  S
C2039      F2045   1.378       .  S
C2042      F2046   1.381       .  S
C2042      F2047   1.384       .  S
C2042      F2048   1.383       .  S
C2049      C2054   1.428       .  A
C2049      H2056   1.085       .  S
C2050      C2051   1.458       .  A
C2051      C2052   1.433       .  A
C2051      C2058   1.535       .  S
C2052      H2057   1.077       .  S
C2053      C2054   1.466       .  A
C2054      C2055   1.519       .  S
C2055      F2059   1.382       .  S
C2055      F2060   1.383       .  S
C2055      F2061   1.366       .  S
C2058      F2062   1.378   1_455  S
C2058      F2063   1.378       .  S
C2058      F2064   1.386       .  S
C2065      C2066   1.405       .  A
C2065      C2070   1.429       .  A
C2065      H2072   1.084       .  S
C2066      C2067   1.404       .  A
C2067      C2068   1.418       .  A
C2067      C2074   1.517       .  S
C2068      C2069   1.437       .  A
C2068      H2073   1.073       .  S
C2069      C2070   1.452       .  A
C2070      C2071   1.523       .  S
C2071      F2075   1.382       .  S
C2071      F2077   1.385       .  S
C2074      F2078   1.385       .  S
C2074      F2079   1.381       .  S
C2074      F2080   1.383       .  S
C2081      C2082   1.415       .  A
C2081      C2086   1.432       .  A
C2081      H2088   1.084       .  S
C2082      C2083   1.411       .  A
C2083      C2084   1.428       .  A
C2083      C2090   1.509       .  S
C2084      C2085   1.442       .  A
C2084      H2089   1.072       .  S
C2085      C2086   1.457       .  A
C2086      C2087   1.528       .  S
C2087      F2091   1.384       .  S
C2087      F2093   1.381       .  S
C2090      F2094   1.373       .  S
C2090      F2095   1.383       .  S
C2090      F2096   1.383       .  S
C2097      C2098   1.441       .  A
C2097      C2102   1.428       .  A
C2097      H2104   1.070       .  S
C2098      C2099   1.447       .  A
C2099      C2100   1.438       .  A
C2099      C2106   1.530       .  S
C2100      C2101   1.416       .  A
C2100      H2105   1.079       .  S
C2101      C2102   1.410       .  A
C2102      C2103   1.520       .  S
C2103      F2107   1.385       .  S
C2103      F2108   1.382       .  S
C2103      F2109   1.385       .  S
C2106      F2110   1.380       .  S
C2106      F2111   1.376       .  S
C2106      F2112   1.378       .  S
C2113      C2114   1.440       .  A
C2113      C2118   1.428       .  A
C2113      H2120   1.068       .  S
C2114      C2115   1.450       .  A
C2115      C2116   1.441       .  A
C2115      C2122   1.527       .  S
C2116      C2117   1.413       .  A
C2116      H2121   1.072       .  S
C2117      C2118   1.405       .  A
C2118      C2119   1.504       .  S
C2119      F2123   1.379       .  S
C2119      F2124   1.382       .  S
C2119      F2125   1.373       .  S
C2122      F2126   1.376       .  S
C2122      F2127   1.378   1_565  S
C2122      F2128   1.381       .  S
C2129      C2130   1.396       .  A
C2129      C2134   1.393       .  A
C2129      H2136   1.086       .  S
C2130      C2131   1.403       .  A
C2131      C2132   1.397       .  A
C2131      C2138   1.514       .  S
C2132      C2133   1.414       .  A
C2132      H2137   1.084       .  S
C2133      C2134   1.427       .  A
C2134      C2135   1.508       .  S
C2135      F2139   1.387       .  S
C2135      F2140   1.373       .  S
C2135      F2141   1.381       .  S
C2138      F2142   1.384       .  S
C2138      F2143   1.380       .  S
C2138      F2144   1.383       .  S
C2145      C2146   1.393       .  A
C2145      C2150   1.380       .  A
C2145      H2152   1.085       .  S
C2146      C2147   1.411       .  A
C2147      C2148   1.391       .  A
C2147      C2154   1.520       .  S
C2148      C2149   1.399       .  A
C2148      H2153   1.085       .  S
C2149      C2150   1.410       .  A
C2150      C2151   1.522       .  S
C2151      F2155   1.381       .  S
C2151      F2156   1.382       .  S
C2151      F2157   1.380       .  S
C2154      F2158   1.382       .  S
C2154      F2159   1.382       .  S
C2154      F2160   1.383       .  S
C2161      C2162   1.388       .  A
C2161      C2166   1.385       .  A
C2161      H2168   1.084       .  S
C2162      C2163   1.411       .  A
C2163      C2164   1.378       .  A
C2163      C2170   1.507       .  S
C2164      C2165   1.384       .  A
C2164      H2169   1.083       .  S
C2165      C2166   1.424       .  A
C2166      C2167   1.525       .  S
C2167      F2171   1.384       .  S
C2167      F2172   1.380       .  S
C2167      F2173   1.379       .  S
C2170      F2174   1.378       .  S
C2170      F2175   1.374       .  S
C2170      F2176   1.378       .  S
C2177      C2178   1.399       .  A
C2177      C2182   1.393       .  A
C2177      H2184   1.085       .  S
C2178      C2179   1.405       .  A
C2179      C2180   1.408       .  A
C2179      C2186   1.520       .  S
C2180      C2181   1.418       .  A
C2180      H2185   1.081       .  S
C2181      C2182   1.409       .  A
C2182      C2183   1.508       .  S
C2183      F2187   1.365       .  S
C2183      F2188   1.368       .  S
C2183      F2189   1.383       .  S
C2186      F2190   1.376       .  S
C2186      F2191   1.385       .  S
C2186      F2192   1.381       .  S
C2193      C2194   1.441       .  A
C2193      C2198   1.426       .  A
C2193      H2200   1.072       .  S
C2194      C2195   1.453       .  A
C2195      C2196   1.432       .  A
C2195      C2202   1.521       .  S
C2196      C2197   1.408       .  A
C2196      H2201   1.082       .  S
C2197      C2198   1.412       .  A
C2198      C2199   1.519       .  S
C2199      F2203   1.385       .  S
C2199      F2204   1.382       .  S
C2199      F2205   1.384       .  S
C2202      F2206   1.376       .  S
C2202      F2208   1.385       .  S
C2209      C2210   1.438       .  A
C2209      C2214   1.429       .  A
C2209      H2216   1.070       .  S
C2210      C2211   1.447       .  A
C2211      C2212   1.437       .  A
C2211      C2218   1.525       .  S
C2212      C2213   1.412       .  A
C2212      H2217   1.083       .  S
C2213      C2214   1.412       .  A
C2214      C2215   1.522       .  S
C2215      F2219   1.380       .  S
C2215      F2220   1.382       .  S
C2215      F2221   1.383       .  S
C2218      F2222   1.372       .  S
C2218      F2223   1.373   1_655  S
C2218      F2224   1.381   1_655  S
C2225      C2226   1.412       .  A
C2225      C2230   1.436       .  A
C2225      H2232   1.083       .  S
C2226      C2227   1.414       .  A
C2227      C2228   1.438       .  A
C2227      C2234   1.520       .  S
C2228      C2229   1.441       .  A
C2228      H2233   1.075       .  S
C2229      C2230   1.453       .  A
C2230      C2231   1.527       .  S
C2231      F2235   1.380       .  S
C2231      F2236   1.374   1_565  S
C2231      F2237   1.383       .  S
C2234      F2238   1.383       .  S
C2234      F2239   1.383       .  S
C2234      F2240   1.385       .  S
C2241      C2242   1.414       .  A
C2241      C2246   1.432       .  A
C2241      H2248   1.085       .  S
C2242      C2243   1.416       .  A
C2243      C2244   1.435       .  A
C2243      C2250   1.520       .  S
C2244      C2245   1.436       .  A
C2244      H2249   1.072       .  S
C2245      C2246   1.455       .  A
C2246      C2247   1.527       .  S
C2247      F2251   1.385       .  S
C2247      F2252   1.368       .  S
C2247      F2253   1.382       .  S
C2250      F2254   1.383       .  S
C2250      F2255   1.383       .  S
C2250      F2256   1.384       .  S
