geometry optimzed in LAMMPS
_audit_creation_date              2020-12-01 
_audit_creation_method            'lammps2cif' 
_symmetry_space_group_name_H-M    'P1' 
_symmetry_Int_Tables_number       1 
_symmetry_cell_setting            triclinic 
loop_ 
_symmetry_equiv_pos_as_xyz 
  x,y,z 
_cell_length_a                    37.68144404 
_cell_length_b                    37.706933867510315 
_cell_length_c                    37.7584299361473 
_cell_angle_alpha                 90.1831620657587 
_cell_angle_beta                  90.10658957426854 
_cell_angle_gamma                 89.88317848670164 
loop_ 
_atom_site_label 
_atom_site_type_symbol 
_atom_site_fract_x 
_atom_site_fract_y 
_atom_site_fract_z 
_atom_site_charge 
N1          N  0.21335778  0.30904314  0.23849314    -0.26500
N2          N  0.19874351  0.29474534  0.26684296    -0.34400
C3          C  0.16972713  0.31352687  0.27574292     0.01800
C4          C  0.16581959  0.34086144  0.25172822     0.07900
C5          C  0.19390671  0.33724064  0.22844094    -0.05200
H6          H  0.15245079  0.30742675  0.29774295     0.08500
H7          H  0.19970711  0.35379236  0.20583492     0.09700
Cu8        Cu  0.21831929  0.24974148  0.29136213     0.44200
Cu9        Cu  0.25859511  0.28883051  0.21463991     0.42000
Cu10       Cu  0.29620581  0.20836740  0.25229843     0.43900
N11         N  0.24234048  0.20460788  0.31134142    -0.33900
N12         N  0.27092864  0.18966899  0.29751427    -0.28100
C13         C  0.27958889  0.16102922  0.31689788    -0.04200
C14         C  0.25515720  0.15766958  0.34410462     0.08000
C15         C  0.23194647  0.18580117  0.33965714     0.01800
H16         H  0.30199059  0.14386249  0.31152151     0.09400
H17         H  0.20885081  0.19191620  0.35553867     0.08500
N18         N  0.31570737  0.23295969  0.20705095    -0.35300
N19         N  0.30233609  0.26264266  0.19396724    -0.27500
C20         C  0.32113126  0.27213166  0.16530551    -0.02800
C21         C  0.34742217  0.24713699  0.15990326     0.05900
C22         C  0.34324191  0.22262125  0.18676775     0.03900
H23         H  0.31592217  0.29542201  0.14944804     0.09100
H24         H  0.35927161  0.19926086  0.19144824     0.07900
O25         O  0.96311803  0.53272366  0.27647776    -0.72200
O26         O  0.03974414  0.45881772  0.27789894    -0.73100
O27         O  0.03835852  0.53422132  0.27497580    -0.61800
O28         O  0.96486722  0.45764177  0.27935551    -0.70200
O29         O  0.96345495  0.45591601  0.22054457    -0.69700
O30         O  0.03852231  0.53142469  0.21665234    -0.61000
O31         O  0.03920149  0.45653739  0.21948045    -0.73500
O32         O  0.96273378  0.53116094  0.21777183    -0.72300
Cu33       Cu  0.00157929  0.49597117  0.27916683     1.04600
Cu34       Cu  0.00090561  0.49368085  0.21655046     1.04300
C35         C  0.95063761  0.54352403  0.24693275     0.94000
C36         C  0.05183079  0.44584775  0.24903456     0.93200
C37         C  0.05062946  0.54485448  0.24532319     0.85300
C38         C  0.95253452  0.44483606  0.25054799     0.91600
N39         N  0.70113081  0.73062447  0.19724432    -0.26500
N40         N  0.68679732  0.75807193  0.21385747    -0.34400
C41         C  0.65827197  0.76921407  0.19540752     0.01800
C42         C  0.65446075  0.74752490  0.16604363     0.07900
C43         C  0.68195651  0.72335410  0.16806001    -0.05200
H44         H  0.64150981  0.79132551  0.20286354     0.08500
H45         H  0.68779720  0.70223833  0.14948843     0.09700
Cu46       Cu  0.70697832  0.77923064  0.26066573     0.44200
Cu47       Cu  0.74667671  0.70460053  0.21400920     0.42000
Cu48       Cu  0.78810047  0.73917132  0.29320470     0.43900
N49         N  0.73487287  0.79772135  0.30454890    -0.33900
N50         N  0.76503163  0.78374385  0.31578214    -0.28100
C51         C  0.77778570  0.80355080  0.34263086    -0.04200
C52         C  0.75442753  0.83132184  0.34884180     0.08000
C53         C  0.72742097  0.82651586  0.32427342     0.01800
H54         H  0.80277165  0.79863479  0.35589851     0.09400
H55         H  0.70431773  0.84316845  0.32050984     0.08500
N56         N  0.80698179  0.69551926  0.26553123    -0.35300
N57         N  0.79232845  0.68317886  0.23612905    -0.27500
C58         C  0.81137771  0.65525655  0.22445613    -0.02800
C59         C  0.83909888  0.64978949  0.24784024     0.05900
C60         C  0.83551819  0.67564801  0.27355049     0.03900
H61         H  0.80530150  0.63990650  0.20097002     0.09100
H62         H  0.85247881  0.67979446  0.29633285     0.07900
O63         O  0.21913115  0.03636073  0.46181694    -0.72200
O64         O  0.21622662  0.96245241  0.53850042    -0.73100
O65         O  0.21712370  0.03829060  0.53662985    -0.61800
O66         O  0.21815596  0.96084160  0.46328125    -0.70200
O67         O  0.27692242  0.96042630  0.46430734    -0.69700
O68         O  0.27561802  0.03657730  0.53902837    -0.61000
O69         O  0.27516296  0.96157991  0.53971788    -0.73500
O70         O  0.27806341  0.03569398  0.46391897    -0.72300
Cu71       Cu  0.21559010  0.99945911  0.50001377     1.04600
Cu72       Cu  0.27846024  0.99850247  0.50179884     1.04300
C73         C  0.24912659  0.04780391  0.45111999     0.94000
C74         C  0.24535033  0.95046739  0.55114043     0.93200
C75         C  0.24624983  0.05002050  0.54944752     0.85300
C76         C  0.24765503  0.94853637  0.45189741     0.91600
O77         O  0.78455925  0.96332262  0.53848391    -0.72200
O78         O  0.77976605  0.03534339  0.46059352    -0.73100
O79         O  0.77849195  0.03862133  0.53529511    -0.61800
O80         O  0.78582969  0.96001130  0.46356513    -0.70200
O81         O  0.72698452  0.95652180  0.46216380    -0.69700
O82         O  0.72028202  0.03365159  0.53543038    -0.61000
O83         O  0.72110376  0.03144076  0.46030795    -0.73500
O84         O  0.72593615  0.95886787  0.53713715    -0.72300
Cu85       Cu  0.78421780  0.99946974  0.49951141     1.04600
Cu86       Cu  0.72156761  0.99494677  0.49871966     1.04300
C87         C  0.75588333  0.94950035  0.54997214     0.94000
C88         C  0.74964849  0.04512629  0.44840384     0.93200
C89         C  0.74832194  0.04881542  0.54696612     0.85300
C90         C  0.75741091  0.94596592  0.45158553     0.91600
N91         N  0.18325646  0.71368016  0.74637976    -0.26500
N92         N  0.19731336  0.70059045  0.77569737    -0.34400
C93         C  0.17828451  0.67234197  0.78604051     0.01800
C94         C  0.15113034  0.66731106  0.76195944     0.07900
C95         C  0.15505627  0.69387072  0.73711395    -0.05200
H96         H  0.18455782  0.65589295  0.80863707     0.08500
H97         H  0.13909804  0.69798725  0.71362848     0.09700
Cu98       Cu  0.24340954  0.71958863  0.79876150     0.44200
Cu99       Cu  0.20403581  0.75680639  0.71938405     0.42000
Cu100      Cu  0.28637609  0.79257506  0.75435398     0.43900
N101        N  0.29056743  0.74189758  0.81596350    -0.33900
N102        N  0.30617706  0.76889018  0.80006104    -0.28100
C103        C  0.33587695  0.77733902  0.81806271    -0.04200
C104        C  0.33905483  0.75439025  0.84638182     0.08000
C105        C  0.30997562  0.73228135  0.84429773     0.01800
H106        H  0.35381260  0.79854196  0.81105449     0.09400
H107        H  0.30327624  0.71096473  0.86217552     0.08500
N108        N  0.26125519  0.81168392  0.70908520    -0.35300
N109        N  0.23090736  0.79910444  0.69677642    -0.27500
C110        C  0.22125775  0.81788334  0.66807204    -0.02800
C111        C  0.24683395  0.84347609  0.66172536     0.05900
C112        C  0.27185680  0.83855870  0.68828639     0.03900
H113        H  0.19707123  0.81353303  0.65321704     0.09100
H114        H  0.29604372  0.85345268  0.69229023     0.07900
O115        O  0.03871401  0.46638110  0.72121261    -0.72200
O116        O  0.96373015  0.54208435  0.72317244    -0.73100
O117        O  0.03857804  0.54156417  0.72588207    -0.61800
O118        O  0.96347191  0.46689131  0.71815734    -0.70200
O119        O  0.96050590  0.46399257  0.77650210    -0.69700
O120        O  0.03687297  0.53779782  0.78435379    -0.61000
O121        O  0.96153082  0.53844733  0.78129308    -0.73500
O122        O  0.03619572  0.46276054  0.77988546    -0.72300
Cu123      Cu  0.00123355  0.50429194  0.72008467     1.04600
Cu124      Cu  0.99874948  0.50056988  0.78253237     1.04300
C125        C  0.04933886  0.45285247  0.75032939     0.94000
C126        C  0.95047508  0.55243282  0.75257102     0.93200
C127        C  0.04951338  0.55176336  0.75627838     0.85300
C128        C  0.94949878  0.45393151  0.74605403     0.91600
N129        N  0.75354942  0.21673789  0.67685629    -0.26500
N130        N  0.72663115  0.20150103  0.69322109    -0.34400
C131        C  0.71793337  0.17151823  0.67590329     0.01800
C132        C  0.74042672  0.16762300  0.64718911     0.07900
C133        C  0.76257227  0.19690414  0.64859446    -0.05200
H134        H  0.69744455  0.15332733  0.68425456     0.08500
H135        H  0.78415518  0.20299439  0.63077826     0.09700
Cu136      Cu  0.70390843  0.22113779  0.73926034     0.44200
Cu137      Cu  0.77835201  0.26252370  0.69495312     0.42000
Cu138      Cu  0.74165353  0.30144502  0.77518909     0.43900
N139        N  0.68559081  0.24552346  0.78501192    -0.33900
N140        N  0.69887895  0.27533542  0.79789291    -0.28100
C141        C  0.68091170  0.28433567  0.82738738    -0.04200
C142        C  0.65533331  0.25877462  0.83339739     0.08000
C143        C  0.65905191  0.23459412  0.80606710     0.01800
H144        H  0.68627877  0.30753235  0.84344440     0.09400
H145        H  0.64345374  0.21092276  0.80168226     0.08500
N146        N  0.78603033  0.32095808  0.74917278    -0.35300
N147        N  0.79934668  0.30701810  0.71985527    -0.27500
C148        C  0.82856248  0.32528603  0.71063159    -0.02800
C149        C  0.83390271  0.35182867  0.73543803     0.05900
C150        C  0.80649337  0.34830014  0.75945297     0.03900
H151        H  0.84522981  0.31908578  0.68813751     0.09100
H152        H  0.80209588  0.36409442  0.78301830     0.07900
O153        O  0.53645278  0.78185407  0.96560372    -0.72200
O154        O  0.46228976  0.78095062  0.04176412    -0.73100
O155        O  0.53713754  0.78108108  0.04145523    -0.61800
O156        O  0.46123415  0.78187802  0.96647447    -0.70200
O157        O  0.46207532  0.72312468  0.96490582    -0.69700
O158        O  0.53725771  0.72243292  0.04048740    -0.61000
O159        O  0.46213815  0.72202267  0.03990101    -0.73500
O160        O  0.53750200  0.72342726  0.96552403    -0.72300
Cu161      Cu  0.49933439  0.78350245  0.00381457     1.04600
Cu162      Cu  0.49978622  0.72074272  0.00264491     1.04300
C163        C  0.54887670  0.75277652  0.95324960     0.94000
C164        C  0.45060484  0.75119339  0.05271449     0.93200
C165        C  0.54882466  0.75158666  0.05338595     0.85300
C166        C  0.44955991  0.75263344  0.95386899     0.91600
O167        O  0.53852121  0.28144387  0.95996350    -0.72200
O168        O  0.46463518  0.27849231  0.03621207    -0.73100
O169        O  0.54006422  0.28006776  0.03491075    -0.61800
O170        O  0.46310544  0.27975625  0.96125674    -0.70200
O171        O  0.46450861  0.22084707  0.96013488    -0.69700
O172        O  0.54124123  0.22170856  0.03403267    -0.61000
O173        O  0.46620628  0.21983618  0.03555570    -0.73500
O174        O  0.53976807  0.22281738  0.95833811    -0.72300
Cu175      Cu  0.50154030  0.28194200  0.99812208     1.04600
Cu176      Cu  0.50300933  0.21925275  0.99696046     1.04300
C177        C  0.55077544  0.25268353  0.94678574     0.94000
C178        C  0.45376340  0.24878665  0.04819278     0.93200
C179        C  0.55291714  0.25097082  0.04655329     0.85300
C180        C  0.45175825  0.25022273  0.94914247     0.91600
N181        N  0.70189606  0.73941208  0.80886266    -0.26500
N182        N  0.68772459  0.76773464  0.79383297    -0.34400
C183        C  0.65849738  0.77727343  0.81198125     0.01800
C184        C  0.65413835  0.75377562  0.83973437     0.07900
C185        C  0.68213393  0.73018011  0.83691069    -0.05200
H186        H  0.64181586  0.79975013  0.80557717     0.08500
H187        H  0.68805004  0.70822411  0.85434586     0.09700
Cu188      Cu  0.70959268  0.79270421  0.75016530     0.44200
Cu189      Cu  0.74787913  0.71481052  0.79149854     0.42000
Cu190      Cu  0.79546375  0.75948677  0.72213636     0.43900
N191        N  0.73844757  0.81378046  0.70853864    -0.33900
N192        N  0.77026242  0.80230481  0.69912029    -0.28100
C193        C  0.78182365  0.82144768  0.67150307    -0.04200
C194        C  0.75593891  0.84595814  0.66307700     0.08000
C195        C  0.72878216  0.84040943  0.68695140     0.01800
H196        H  0.80682749  0.81728157  0.65806274     0.09400
H197        H  0.70382828  0.85457199  0.68843445     0.08500
N198        N  0.81209270  0.71237516  0.74447124    -0.35300
N199        N  0.79440120  0.69557963  0.76948734    -0.27500
C200        C  0.81138039  0.66515691  0.77716101    -0.02800
C201        C  0.84122004  0.66277943  0.75592935     0.05900
C202        C  0.84082285  0.69320804  0.73559076     0.03900
H203        H  0.80250023  0.64607138  0.79654107     0.09100
H204        H  0.85998275  0.70085708  0.71573658     0.07900
N205        N  0.76024872  0.20402117  0.31254737    -0.26500
N206        N  0.73070726  0.19135443  0.29843616    -0.34400
C207        C  0.72065900  0.16244268  0.31657944     0.01800
C208        C  0.74524939  0.15662718  0.34310587     0.07900
C209        C  0.76996512  0.18337516  0.33985016    -0.05200
H210        H  0.69762422  0.14645938  0.31046482     0.08500
H211        H  0.79339733  0.18739101  0.35595875     0.09700
Cu212      Cu  0.70669687  0.21248237  0.25386789     0.44200
Cu213      Cu  0.78692761  0.24789753  0.29353385     0.42000
Cu214      Cu  0.75546467  0.28206360  0.20983034     0.43900
N215        N  0.69000458  0.23628775  0.20738320    -0.33900
N216        N  0.70787034  0.26158963  0.19112349    -0.28100
C217        C  0.69020092  0.27098127  0.16160306    -0.04200
C218        C  0.65987448  0.25047741  0.15914365     0.08000
C219        C  0.66060434  0.22878855  0.18860273     0.01800
H220        H  0.69901476  0.29090478  0.14305249     0.09400
H221        H  0.64128117  0.20889029  0.19576762     0.08500
N222        N  0.79983545  0.30135013  0.23617193    -0.35300
N223        N  0.81061625  0.28973647  0.26737557    -0.27500
C224        C  0.83838772  0.30932358  0.27828255    -0.02800
C225        C  0.84561088  0.33443364  0.25259057     0.05900
C226        C  0.82069865  0.32837705  0.22621183     0.03900
H227        H  0.85178882  0.30598632  0.30341517     0.09100
H228        H  0.81756983  0.34293641  0.20176071     0.07900
N229        N  0.23620231  0.20847967  0.68987214    -0.26500
N230        N  0.26390583  0.19288743  0.70473237    -0.34400
C231        C  0.27226575  0.16367170  0.68594042     0.01800
C232        C  0.24854965  0.16071647  0.65804118     0.07900
C233        C  0.22607153  0.18956027  0.66137471    -0.05200
H234        H  0.29391352  0.14584709  0.69217177     0.08500
H235        H  0.20417271  0.19648726  0.64414463     0.09700
Cu236      Cu  0.28881423  0.21223755  0.74988652     0.44200
Cu237      Cu  0.21356379  0.25489962  0.70870968     0.42000
Cu238      Cu  0.25158087  0.29282816  0.78822945     0.43900
N239        N  0.30907840  0.23723900  0.79459088    -0.33900
N240        N  0.29577873  0.26666881  0.80839242    -0.28100
C241        C  0.31530679  0.27599579  0.83679069    -0.04200
C242        C  0.34214089  0.25121383  0.84115024     0.08000
C243        C  0.33729835  0.22702647  0.81391102     0.01800
H244        H  0.31047288  0.29926354  0.85292622     0.09400
H245        H  0.35304976  0.20359627  0.80858545     0.08500
N246        N  0.20733906  0.31358964  0.76264157    -0.35300
N247        N  0.19405515  0.30011729  0.73312799    -0.27500
C248        C  0.16582789  0.31951912  0.72311183    -0.02800
C249        C  0.16071300  0.34638739  0.74769840     0.05900
C250        C  0.18761614  0.34173787  0.77239670     0.03900
H251        H  0.15012018  0.31429225  0.69967241     0.09100
H252        H  0.19221423  0.35732555  0.79605737     0.07900
N253        N  0.29732129  0.73138297  0.19518641    -0.26500
N254        N  0.30979911  0.76150268  0.20803223    -0.34400
C255        C  0.33791159  0.77147369  0.18863877     0.01800
C256        C  0.34361522  0.74621255  0.16248974     0.07900
C257        C  0.31740997  0.72108270  0.16765783    -0.05200
H258        H  0.35277278  0.79562393  0.19296486     0.08500
H259        H  0.31300189  0.69715395  0.15241509     0.09700
Cu260      Cu  0.28814578  0.78723639  0.25153110     0.44200
Cu261      Cu  0.25208017  0.70707187  0.21376154     0.42000
Cu262      Cu  0.20664888  0.75006565  0.28671102     0.43900
N263        N  0.26251157  0.80686019  0.29603086    -0.33900
N264        N  0.23246341  0.79386785  0.30855313    -0.28100
C265        C  0.22267435  0.81303155  0.33708359    -0.04200
C266        C  0.24795841  0.83898945  0.34287758     0.08000
C267        C  0.27280771  0.83431645  0.31641811     0.01800
H268        H  0.19900945  0.80835348  0.35254437     0.09400
H269        H  0.29640440  0.84998844  0.31204358     0.08500
N270        N  0.18780601  0.70491381  0.26084364    -0.35300
N271        N  0.20449152  0.68953242  0.23409495    -0.27500
C272        C  0.18611530  0.66086332  0.22353679    -0.02800
C273        C  0.15647752  0.65786619  0.24474835     0.05900
C274        C  0.15838140  0.68615678  0.26818275     0.03900
H275        H  0.19426965  0.64296425  0.20261486     0.09100
H276        H  0.14002561  0.69229988  0.28934012     0.07900
C277        C  0.37025040  0.25074186  0.86895780    -0.04500
C278        C  0.40635407  0.24649392  0.85945741    -0.01700
C279        C  0.43290113  0.24570690  0.88583679     0.03300
C280        C  0.42373379  0.25007671  0.92174857    -0.04500
C281        C  0.38787473  0.25447657  0.93139776    -0.01700
C282        C  0.36114285  0.25439908  0.90515890     0.03300
C283        C  0.41652944  0.24420648  0.82248322     0.38000
C284        C  0.37845992  0.25856429  0.96844498     0.38000
C285        C  0.32419695  0.25666977  0.91568319     0.36400
C286        C  0.46979919  0.24066126  0.87602264     0.36400
N287        N  0.29473067  0.25833290  0.92413671    -0.38400
N288        N  0.49918215  0.23644287  0.86817573    -0.38400
N289        N  0.37088452  0.26188650  0.99796056    -0.37900
N290        N  0.42476934  0.24245046  0.79301594    -0.37900
C291        C  0.63294403  0.25074255  0.13032415    -0.04500
C292        C  0.62567238  0.21949806  0.11110247    -0.01700
C293        C  0.60031081  0.21958983  0.08350868     0.03300
C294        C  0.58115745  0.25111149  0.07501636    -0.04500
C295        C  0.58901719  0.28259731  0.09455495    -0.01700
C296        C  0.61468406  0.28223970  0.12188524     0.03300
C297        C  0.64514025  0.18718852  0.11909408     0.38000
C298        C  0.57080970  0.31577596  0.08735011     0.38000
C299        C  0.62141894  0.31425735  0.14230636     0.36400
C300        C  0.59504283  0.18695455  0.06368939     0.36400
N301        N  0.62670092  0.33976699  0.15859269    -0.38400
N302        N  0.59109999  0.16075453  0.04812549    -0.38400
N303        N  0.55664165  0.34244983  0.08175382    -0.37900
N304        N  0.66061821  0.16144771  0.12550619    -0.37900
C305        C  0.57619207  0.75304103  0.92414412    -0.04500
C306        C  0.58245672  0.72223310  0.90306868    -0.01700
C307        C  0.60684544  0.72312942  0.87477020     0.03300
C308        C  0.62638459  0.75412668  0.86768287    -0.04500
C309        C  0.62069178  0.78471457  0.88850701    -0.01700
C310        C  0.59596764  0.78425924  0.91658778     0.03300
C311        C  0.56442883  0.68901004  0.91013203     0.38000
C312        C  0.64122801  0.81655243  0.88186737     0.38000
C313        C  0.59242236  0.81588146  0.93834324     0.36400
C314        C  0.61093072  0.69223170  0.85202310     0.36400
N315        N  0.58984329  0.84124207  0.95550625    -0.38400
N316        N  0.61400012  0.66766791  0.83381826    -0.38400
N317        N  0.65751103  0.84198118  0.87659628    -0.37900
N318        N  0.55067639  0.66219272  0.91575375    -0.37900
C319        C  0.42331001  0.75031549  0.08058045    -0.04500
C320        C  0.38842548  0.73998365  0.07207392    -0.01700
C321        C  0.36225409  0.73880925  0.09865911     0.03300
C322        C  0.37121527  0.74678006  0.13429740    -0.04500
C323        C  0.40669066  0.75587721  0.14280472    -0.01700
C324        C  0.43236542  0.75862185  0.11585355     0.03300
C325        C  0.37934632  0.73115497  0.03570728     0.38000
C326        C  0.41744297  0.76044520  0.17945748     0.38000
C327        C  0.46834490  0.76934979  0.12451028     0.36400
C328        C  0.32601687  0.73030455  0.08880959     0.36400
N329        N  0.49695682  0.77811267  0.13142440    -0.38400
N330        N  0.29720815  0.72338361  0.08069936    -0.38400
N331        N  0.42613481  0.76374234  0.20869797    -0.37900
N332        N  0.37217024  0.72399652  0.00674288    -0.37900
C333        C  0.62910600  0.25752575  0.86268567    -0.04500
C334        C  0.63000648  0.22954627  0.88737971    -0.01700
C335        C  0.60469589  0.22792690  0.91489209     0.03300
C336        C  0.57778000  0.25417559  0.91772902    -0.04500
C337        C  0.57687528  0.28204342  0.89250636    -0.01700
C338        C  0.60263274  0.28384240  0.86546121     0.03300
C339        C  0.65770813  0.20283416  0.88502304     0.38000
C340        C  0.54854875  0.30819189  0.89309036     0.38000
C341        C  0.60115915  0.31225810  0.83964550     0.36400
C342        C  0.60725121  0.19959923  0.94070363     0.36400
N343        N  0.59998475  0.33490061  0.81905377    -0.38400
N344        N  0.60941005  0.17689209  0.96115291    -0.38400
N345        N  0.52591623  0.32898952  0.89339800    -0.37900
N346        N  0.67984241  0.18159336  0.88311113    -0.37900
C347        C  0.07755821  0.42565559  0.74983060    -0.04500
C348        C  0.11293326  0.43534793  0.75701804    -0.01700
C349        C  0.14019500  0.40970657  0.75542250     0.03300
C350        C  0.13202404  0.37375703  0.74806386    -0.04500
C351        C  0.09623771  0.36412518  0.74141953    -0.01700
C352        C  0.06923286  0.39011861  0.74190276     0.03300
C353        C  0.12128183  0.47185574  0.76600086     0.38000
C354        C  0.08671963  0.32736686  0.73521445     0.38000
C355        C  0.03264550  0.38024827  0.73493271     0.36400
C356        C  0.17676812  0.42087258  0.75980385     0.36400
N357        N  0.00345443  0.37246366  0.72940915    -0.38400
N358        N  0.20590109  0.42998142  0.76312940    -0.38400
N359        N  0.07895156  0.29809330  0.73020145    -0.37900
N360        N  0.12795383  0.50088070  0.77345763    -0.37900
C361        C  0.92204913  0.58065290  0.75344856    -0.04500
C362        C  0.91192811  0.59706049  0.78600575    -0.01700
C363        C  0.88513673  0.62327063  0.78674474     0.03300
C364        C  0.86827035  0.63403065  0.75520798    -0.04500
C365        C  0.87783138  0.61789115  0.72285355    -0.01700
C366        C  0.90438265  0.59143206  0.72183182     0.03300
C367        C  0.92915293  0.58800450  0.81921619     0.38000
C368        C  0.85945089  0.62769497  0.69045177     0.38000
C369        C  0.91269816  0.57540134  0.68781345     0.36400
C370        C  0.87573678  0.64003449  0.82015235     0.36400
N371        N  0.91916550  0.56294599  0.66051129    -0.38400
N372        N  0.86822234  0.65325311  0.84681738    -0.38400
N373        N  0.84486453  0.63543913  0.66459615    -0.37900
N374        N  0.94254575  0.58100816  0.84591679    -0.37900
C375        C  0.92009497  0.42731079  0.74303165    -0.04500
C376        C  0.89680416  0.42753969  0.71334064    -0.01700
C377        C  0.86915198  0.40243064  0.71056339     0.03300
C378        C  0.86396214  0.37718848  0.73750212    -0.04500
C379        C  0.88696992  0.37670054  0.76699119    -0.01700
C380        C  0.91471851  0.40162910  0.76993567     0.03300
C381        C  0.89987728  0.45452566  0.68617657     0.38000
C382        C  0.88279197  0.34963508  0.79392115     0.38000
C383        C  0.93776640  0.40021170  0.80074895     0.36400
C384        C  0.84521667  0.40334793  0.68040139     0.36400
N385        N  0.95584871  0.39913800  0.82553807    -0.38400
N386        N  0.82617540  0.40414806  0.65632972    -0.38400
N387        N  0.87954145  0.32794643  0.81528070    -0.37900
N388        N  0.90216360  0.47599612  0.66446297    -0.37900
C389        C  0.42114929  0.75298435  0.92629536    -0.04500
C390        C  0.39179923  0.77634094  0.92949206    -0.01700
C391        C  0.36504415  0.77678991  0.90327290     0.03300
C392        C  0.36727072  0.75395520  0.87374124    -0.04500
C393        C  0.39616604  0.73038870  0.87057878    -0.01700
C394        C  0.42306282  0.72991857  0.89665077     0.03300
C395        C  0.38821760  0.79900487  0.96042100     0.38000
C396        C  0.39831676  0.70673753  0.84025562     0.38000
C397        C  0.45316356  0.70631734  0.89218895     0.36400
C398        C  0.33474056  0.80030769  0.90696900     0.36400
N399        N  0.47703767  0.68735500  0.88839351    -0.38400
N400        N  0.31048088  0.81895188  0.90988256    -0.38400
N401        N  0.40003051  0.68785738  0.81609097    -0.37900
N402        N  0.38525776  0.81699465  0.98513768    -0.37900
C403        C  0.07659473  0.58051126  0.75877583    -0.04500
C404        C  0.07467692  0.60637110  0.78608220    -0.01700
C405        C  0.09941999  0.63439631  0.78739815     0.03300
C406        C  0.12563649  0.63746413  0.76101194    -0.04500
C407        C  0.12780875  0.61177596  0.73388538    -0.01700
C408        C  0.10383331  0.58311410  0.73304637     0.03300
C409        C  0.04642195  0.60529748  0.81211791     0.38000
C410        C  0.15527511  0.61447374  0.70712549     0.38000
C411        C  0.10820613  0.55573364  0.70628009     0.36400
C412        C  0.09717359  0.66082006  0.81534844     0.36400
N413        N  0.11189414  0.53385548  0.68502486    -0.38400
N414        N  0.09533617  0.68185539  0.83766038    -0.38400
N415        N  0.17713662  0.61674235  0.68576952    -0.37900
N416        N  0.02392166  0.60458816  0.83292071    -0.37900
C417        C  0.74561433  0.12744359  0.36916033    -0.04500
C418        C  0.77225437  0.10117713  0.36762102    -0.01700
C419        C  0.77313282  0.07378830  0.39294809     0.03300
C420        C  0.74779234  0.07299388  0.42060364    -0.04500
C421        C  0.72106425  0.09949010  0.42194750    -0.01700
C422        C  0.71975443  0.12627562  0.39601733     0.03300
C423        C  0.79843960  0.10199415  0.33949617     0.38000
C424        C  0.69577587  0.10046948  0.45086482     0.38000
C425        C  0.69242067  0.15342388  0.39764932     0.36400
C426        C  0.79955891  0.04590697  0.38973671     0.36400
N427        N  0.67062941  0.17506242  0.39891230    -0.38400
N428        N  0.82055827  0.02361863  0.38706954    -0.38400
N429        N  0.67554631  0.10155189  0.47385936    -0.37900
N430        N  0.81931683  0.10270229  0.31707007    -0.37900
C431        C  0.75707583  0.92225440  0.57836031    -0.04500
C432        C  0.78059143  0.92589418  0.60744908    -0.01700
C433        C  0.78087060  0.90033352  0.63463756     0.03300
C434        C  0.75666140  0.87188021  0.63378252    -0.06100
C435        C  0.73316253  0.86815569  0.60492465    -0.01700
C436        C  0.73398237  0.89268018  0.57686691     0.03300
C437        C  0.80345775  0.95666636  0.61046341     0.38000
C438        C  0.70847065  0.83867963  0.60379398     0.38000
C439        C  0.71200581  0.88651319  0.54582918     0.36400
C440        C  0.80540735  0.90387893  0.66411128     0.36400
N441        N  0.69473397  0.88146513  0.52094526    -0.38400
N442        N  0.82503901  0.90660242  0.68756628    -0.38400
N443        N  0.68864463  0.81529125  0.60294271    -0.37900
N444        N  0.82166126  0.98120843  0.61315928    -0.37900
C445        C  0.74222316  0.13707992  0.62203334    -0.04500
C446        C  0.71133795  0.12488509  0.60470355    -0.01700
C447        C  0.71301793  0.09599430  0.58078348     0.03300
C448        C  0.74592878  0.07866412  0.57366676    -0.04500
C449        C  0.77671674  0.09063464  0.59209942    -0.01700
C450        C  0.77479185  0.11962473  0.61581163     0.03300
C451        C  0.67767014  0.14276344  0.61064338     0.38000
C452        C  0.81072242  0.07295614  0.58784491     0.38000
C453        C  0.80646721  0.13064833  0.63485018     0.36400
C454        C  0.68037371  0.08477361  0.56364651     0.36400
N455        N  0.83176680  0.13938954  0.64992615    -0.38400
N456        N  0.65409520  0.07596388  0.55038271    -0.38400
N457        N  0.83802119  0.05918640  0.58468702    -0.37900
N458        N  0.65075697  0.15684754  0.61533251    -0.37900
C459        C  0.24783920  0.92036765  0.42391881    -0.04500
C460        C  0.22262063  0.92114143  0.39597647    -0.01700
C461        C  0.22265252  0.89443738  0.36967967     0.03300
C462        C  0.24789837  0.86682523  0.37077953    -0.04500
C463        C  0.27333170  0.86609471  0.39822535    -0.01700
C464        C  0.27323648  0.89256395  0.42479953     0.03300
C465        C  0.19739836  0.95015127  0.39320320     0.38000
C466        C  0.29921620  0.83757518  0.39952826     0.38000
C467        C  0.29867885  0.89030598  0.45361388     0.36400
C468        C  0.19738820  0.89602903  0.34066307     0.36400
N469        N  0.31899621  0.88846728  0.47656659    -0.38400
N470        N  0.17735990  0.89732114  0.31742805    -0.38400
N471        N  0.31985451  0.81482795  0.40056937    -0.37900
N472        N  0.17735443  0.97332811  0.39084864    -0.37900
C473        C  0.24617865  0.07937619  0.57657179    -0.04500
C474        C  0.21574275  0.08631332  0.59779144    -0.01700
C475        C  0.21664745  0.11282048  0.62432043     0.03300
C476        C  0.24767836  0.13290521  0.63004509    -0.04500
C477        C  0.27764153  0.12692558  0.60853441    -0.01700
C478        C  0.27681917  0.10081715  0.58166339     0.03300
C479        C  0.18319228  0.06634868  0.59294211     0.38000
C480        C  0.30917517  0.14852157  0.61327834     0.38000
C481        C  0.30723342  0.09761251  0.55830645     0.36400
C482        C  0.18583199  0.11858405  0.64668292     0.36400
N483        N  0.33148127  0.09531645  0.53965857    -0.38400
N484        N  0.16130955  0.12316159  0.66454808    -0.38400
N485        N  0.33433984  0.16567890  0.61705574    -0.37900
N486        N  0.15697510  0.05084517  0.58910550    -0.37900
C487        C  0.24482006  0.92340362  0.57944378    -0.04500
C488        C  0.23595223  0.88800179  0.57138390    -0.01700
C489        C  0.23772359  0.86171304  0.59790507     0.03300
C490        C  0.24666173  0.87098673  0.63324420    -0.04500
C491        C  0.25491288  0.90681664  0.64124662    -0.01700
C492        C  0.25459786  0.93270249  0.61429985     0.03300
C493        C  0.22566965  0.87854868  0.53550757     0.38000
C494        C  0.26263618  0.91759491  0.67735545     0.38000
C495        C  0.26369357  0.96921628  0.62254374     0.36400
C496        C  0.23219751  0.82488939  0.58816760     0.36400
N497        N  0.27096974  0.99832957  0.62903756    -0.38400
N498        N  0.22806363  0.79552503  0.58017930    -0.38400
N499        N  0.26881660  0.92635627  0.70611518    -0.37900
N500        N  0.21729685  0.87116957  0.50691594    -0.37900
C501        C  0.62679946  0.74939741  0.13812154    -0.04500
C502        C  0.60100723  0.72252299  0.13549406    -0.01700
C503        C  0.57537934  0.72339783  0.10820407     0.03300
C504        C  0.57562426  0.75106655  0.08274596    -0.04500
C505        C  0.60149025  0.77824590  0.08585107    -0.01700
C506        C  0.62680030  0.77739320  0.11348757     0.03300
C507        C  0.60044902  0.69420442  0.16145165     0.38000
C508        C  0.60311543  0.80666939  0.06009712     0.38000
C509        C  0.65371091  0.80478631  0.11590298     0.36400
C510        C  0.54816210  0.69621249  0.10733847     0.36400
N511        N  0.67522350  0.82657604  0.11778609    -0.38400
N512        N  0.52653457  0.67446280  0.10676328    -0.38400
N513        N  0.60451020  0.82947612  0.03971163    -0.37900
N514        N  0.60003721  0.67168083  0.18219524    -0.37900
C515        C  0.75812006  0.86106867  0.37483507    -0.04500
C516        C  0.75071622  0.89636031  0.36427810    -0.01700
C517        C  0.75045449  0.92405057  0.38946023     0.03300
C518        C  0.75951978  0.91718512  0.42498317    -0.04500
C519        C  0.76953753  0.88264644  0.43519323    -0.01700
C520        C  0.76823547  0.85450373  0.41041946     0.03300
C521        C  0.74488857  0.90468681  0.32722904     0.38000
C522        C  0.78040274  0.87595241  0.47147195     0.38000
C523        C  0.77603616  0.81873346  0.42216004     0.36400
C524        C  0.74106150  0.95980380  0.37875762     0.36400
N525        N  0.78234119  0.79027422  0.43173371    -0.38400
N526        N  0.73341499  0.98826328  0.37021834    -0.38400
N527        N  0.78929138  0.87065602  0.50033564    -0.37900
N528        N  0.74052171  0.91143404  0.29765733    -0.37900
C529        C  0.13012450  0.62861253  0.24440242    -0.04500
C530        C  0.11014210  0.62130524  0.21364872    -0.01700
C531        C  0.08513264  0.59340657  0.21333546     0.03300
C532        C  0.07897440  0.57298704  0.24440904    -0.04500
C533        C  0.10024908  0.57992393  0.27486833    -0.01700
C534        C  0.12569735  0.60732593  0.27463294     0.03300
C535        C  0.11463362  0.64322949  0.18242331     0.38000
C536        C  0.09723876  0.55843670  0.30653724     0.38000
C537        C  0.14855134  0.61265896  0.30521092     0.36400
C538        C  0.06612420  0.58618927  0.18063883     0.36400
N539        N  0.16694760  0.61676664  0.32945032    -0.38400
N540        N  0.05151823  0.58042092  0.15424983    -0.38400
N541        N  0.09504159  0.54166358  0.33204808    -0.37900
N542        N  0.11811661  0.66073937  0.15755525    -0.37900
C543        C  0.87293315  0.36298265  0.25361143    -0.04500
C544        C  0.86367210  0.39812323  0.24410288    -0.01700
C545        C  0.88990469  0.42465455  0.24237073     0.03300
C546        C  0.92519529  0.41685147  0.25200011    -0.04500
C547        C  0.93426679  0.38240940  0.26334803    -0.01700
C548        C  0.90842390  0.35534440  0.26351902     0.03300
C549        C  0.82686722  0.40760345  0.23774796     0.38000
C550        C  0.97048507  0.37468481  0.27407358     0.38000
C551        C  0.91888575  0.31948165  0.27269192     0.36400
C552        C  0.88043331  0.46021894  0.23114409     0.36400
N553        N  0.92741172  0.29091849  0.28001096    -0.38400
N554        N  0.87277710  0.48847798  0.22197843    -0.38400
N555        N  0.99935551  0.36867664  0.28272808    -0.37900
N556        N  0.79748817  0.41524088  0.23295138    -0.37900
C557        C  0.92166409  0.57044039  0.24659286    -0.04500
C558        C  0.92309503  0.59964831  0.22317340    -0.01700
C559        C  0.89544849  0.62495829  0.22275445     0.03300
C560        C  0.86671033  0.62184587  0.24637520    -0.04500
C561        C  0.86518211  0.59288639  0.26982907    -0.01700
C562        C  0.89240466  0.56714940  0.26985543     0.03300
C563        C  0.95394219  0.60496079  0.20092120     0.38000
C564        C  0.83524283  0.58938385  0.29367887     0.38000
C565        C  0.88973580  0.53690629  0.29337795     0.36400
C566        C  0.89700760  0.65479242  0.19862931     0.36400
N567        N  0.88752401  0.51277821  0.31211087    -0.38400
N568        N  0.89820209  0.67855898  0.17935245    -0.38400
N569        N  0.81131404  0.58665838  0.31263840    -0.37900
N570        N  0.97860944  0.60955781  0.18333838    -0.37900
C571        C  0.37472805  0.24723316  0.13161483    -0.04500
C572        C  0.40014865  0.27458358  0.13036477    -0.01700
C573        C  0.42626462  0.27476628  0.10362676     0.03300
C574        C  0.42660221  0.24804435  0.07706024    -0.04500
C575        C  0.40060171  0.22088590  0.07820007    -0.01700
C576        C  0.37504746  0.22039030  0.10552883     0.03300
C577        C  0.39981301  0.30237239  0.15706945     0.38000
C578        C  0.39894709  0.19412031  0.05054048     0.38000
C579        C  0.34806269  0.19298552  0.10598814     0.36400
C580        C  0.45341343  0.30201298  0.10445939     0.36400
N581        N  0.32645246  0.17122405  0.10631159    -0.38400
N582        N  0.47498947  0.32380044  0.10528379    -0.38400
N583        N  0.39747200  0.17280390  0.02846391    -0.37900
N584        N  0.39945807  0.32460605  0.17826786    -0.37900
C585        C  0.25045093  0.07574503  0.42383203    -0.04500
C586        C  0.24691966  0.11166380  0.43368267    -0.01700
C587        C  0.24891731  0.13849039  0.40778422     0.03300
C588        C  0.25352990  0.12944784  0.37162740    -0.04500
C589        C  0.25643857  0.09325653  0.36188280    -0.01700
C590        C  0.25569831  0.06661117  0.38801667     0.03300
C591        C  0.24183890  0.12104109  0.47065228     0.38000
C592        C  0.25860350  0.08312920  0.32485245     0.38000
C593        C  0.26051907  0.02971759  0.37806710     0.36400
C594        C  0.24743151  0.17538682  0.41871926     0.36400
N595        N  0.26474374  0.00036759  0.37005425    -0.38400
N596        N  0.24628494  0.20477550  0.42759491    -0.38400
N597        N  0.26009903  0.07498428  0.29531342    -0.37900
N598        N  0.23774332  0.12860311  0.50009353    -0.37900
C599        C  0.13700589  0.36776463  0.25084801    -0.04500
C600        C  0.13170791  0.39055110  0.28001494    -0.01700
C601        C  0.10436727  0.41618365  0.27937342     0.03300
C602        C  0.08091775  0.41850465  0.24987477    -0.04500
C603        C  0.08580784  0.39455790  0.22110203    -0.01700
C604        C  0.11425250  0.37009843  0.22126660     0.03300
C605        C  0.15509769  0.38824771  0.31055004     0.38000
C606        C  0.06080672  0.39352726  0.19182539     0.38000
C607        C  0.11946205  0.34646964  0.19127212     0.36400
C608        C  0.10128621  0.44038684  0.30917279     0.36400
N609        N  0.12375997  0.32772788  0.16732079    -0.38400
N610        N  0.09903258  0.45939614  0.33318794    -0.38400
N611        N  0.04086463  0.39235168  0.16849878    -0.37900
N612        N  0.17362330  0.38636573  0.33495716    -0.37900
loop_ 
_geom_bond_atom_site_label_1 
_geom_bond_atom_site_label_2 
_geom_bond_distance 
_geom_bond_site_symmetry_2 
_ccdc_geom_bond_type 
N1            N2   1.322       .  A
N1            C5   1.345       .  A
N1           Cu9   2.072       .  S
N2            C3   1.344       .  A
N2           Cu8   2.070       .  S
C3            C4   1.382       .  A
C3            H6   1.082       .  S
C4            C5   1.383       .  A
C4          C599   1.485       .  S
C5            H7   1.082       .  S
Cu8          N11   2.070       .  S
Cu9          N19   2.072       .  S
Cu10         N12   2.082       .  S
Cu10         N18   2.082       .  S
N11          N12   1.322       .  A
N11          C15   1.344       .  A
N12          C13   1.346       .  A
C13          C14   1.387       .  A
C13          H16   1.082       .  S
C14          C15   1.384       .  A
C14         C588   1.491       .  S
C15          H17   1.082       .  S
N18          N19   1.323       .  A
N18          C22   1.347       .  A
N19          C20   1.344       .  A
C20          C21   1.381       .  A
C20          H23   1.082       .  S
C21          C22   1.384       .  A
C21         C571   1.484       .  S
C22          H24   1.082       .  S
O25         Cu33   2.006   1_655  S
O25          C35   1.277       .  A
O26         Cu33   2.006       .  S
O26          C36   1.277       .  A
O27         Cu33   2.009       .  S
O27          C37   1.278       .  A
O28         Cu33   2.003   1_655  S
O28          C38   1.276       .  A
O29         Cu34   2.013   1_655  S
O29          C38   1.278       .  A
O30         Cu34   2.011       .  S
O30          C37   1.278       .  A
O31         Cu34   2.012       .  S
O31          C36   1.278       .  A
O32         Cu34   2.015   1_655  S
O32          C35   1.279       .  A
Cu33        Cu34   2.366       .  S
C35         C557   1.489       .  S
C36         C602   1.504       .  S
C37         C532   1.507       .  S
C38         C546   1.477       .  S
N39          N40   1.323       .  A
N39          C43   1.344       .  A
N39         Cu47   2.074       .  S
N40          C41   1.347       .  A
N40         Cu46   2.080       .  S
C41          C42   1.383       .  A
C41          H44   1.082       .  S
C42          C43   1.381       .  A
C42         C501   1.483       .  S
C43          H45   1.082       .  S
Cu46         N49   2.080       .  S
Cu47         N57   2.074       .  S
Cu48         N50   2.072       .  S
Cu48         N56   2.072       .  S
N49          N50   1.321       .  A
N49          C53   1.344       .  A
N50          C51   1.346       .  A
C51          C52   1.386       .  A
C51          H54   1.082       .  S
C52          C53   1.388       .  A
C52         C515   1.495       .  S
C53          H55   1.082       .  S
N56          N57   1.323       .  A
N56          C60   1.344       .  A
N57          C58   1.347       .  A
C58          C59   1.382       .  A
C58          H61   1.082       .  S
C59          C60   1.380       .  A
C59         C560   1.480       .  S
C60          H62   1.082       .  S
O63         Cu71   2.012   1_545  S
O63          C73   1.277       .  A
O64         Cu71   2.018       .  S
O64          C74   1.278       .  A
O65         Cu71   2.011   1_545  S
O65          C75   1.278       .  A
O66         Cu71   2.010       .  S
O66          C76   1.278       .  A
O67         Cu72   2.014       .  S
O67          C76   1.279       .  A
O68         Cu72   2.009   1_545  S
O68          C75   1.278       .  A
O69         Cu72   2.004       .  S
O69          C74   1.276       .  A
O70         Cu72   2.006   1_545  S
O70          C73   1.276       .  A
Cu71        Cu72   2.370       .  S
C73         C585   1.477       .  S
C74         C487   1.480       .  S
C75         C473   1.506       .  S
C76         C459   1.496       .  S
O77         Cu85   2.009       .  S
O77          C87   1.278       .  A
O78         Cu85   2.007   1_545  S
O78          C88   1.278       .  A
O79         Cu85   2.010   1_545  S
O79          C89   1.278       .  A
O80         Cu85   2.012       .  S
O80          C90   1.277       .  A
O81         Cu86   2.008       .  S
O81          C90   1.277       .  A
O82         Cu86   2.010   1_545  S
O82          C89   1.278       .  A
O83         Cu86   2.003   1_545  S
O83          C88   1.277       .  A
O84         Cu86   1.998       .  S
O84          C87   1.277       .  A
Cu85        Cu86   2.367       .  S
C87         C431   1.488       .  S
C88         C420   1.489       .  S
C89         C448   1.511       .  S
C90         C518   1.479       .  S
N91          N92   1.323       .  A
N91          C95   1.345       .  A
N91         Cu99   2.077       .  S
N92          C93   1.345       .  A
N92         Cu98   2.070       .  S
C93          C94   1.381       .  A
C93          H96   1.082       .  S
C94          C95   1.383       .  A
C94         C406   1.481       .  S
C95          H97   1.082       .  S
Cu98        N101   2.070       .  S
Cu99        N109   2.078       .  S
Cu100       N102   2.082       .  S
Cu100       N108   2.082       .  S
N101        N102   1.323       .  A
N101        C105   1.345       .  A
N102        C103   1.347       .  A
C103        C104   1.383       .  A
C103        H106   1.082       .  S
C104        C105   1.380       .  A
C104        C392   1.481       .  S
C105        H107   1.082       .  S
N108        N109   1.322       .  A
N108        C112   1.346       .  A
N109        C110   1.346       .  A
C110        C111   1.387       .  A
C110        H113   1.082       .  S
C111        C112   1.388       .  A
C111        C490   1.497       .  S
C112        H114   1.082       .  S
O115       Cu123   2.008       .  S
O115        C125   1.277       .  A
O116       Cu123   2.008   1_655  S
O116        C126   1.278       .  A
O117       Cu123   2.002       .  S
O117        C127   1.277       .  A
O118       Cu123   2.006   1_655  S
O118        C128   1.277       .  A
O119       Cu124   2.009       .  S
O119        C128   1.278       .  A
O120       Cu124   2.012   1_455  S
O120        C127   1.278       .  A
O121       Cu124   2.000       .  S
O121        C126   1.276       .  A
O122       Cu124   2.006   1_455  S
O122        C125   1.276       .  A
Cu123      Cu124   2.365   1_455  S
C125        C347   1.476       .  S
C126        C361   1.509       .  S
C127        C403   1.493       .  S
C128        C375   1.501       .  S
N129        N130   1.322       .  A
N129        C133   1.345       .  A
N129       Cu137   2.078       .  S
N130        C131   1.345       .  A
N130       Cu136   2.073       .  S
C131        C132   1.385       .  A
C131        H134   1.082       .  S
C132        C133   1.386       .  A
C132        C445   1.492       .  S
C133        H135   1.082       .  S
Cu136       N139   2.073       .  S
Cu137       N147   2.078       .  S
Cu138       N140   2.078       .  S
Cu138       N146   2.078       .  S
N139        N140   1.322       .  A
N139        C143   1.345       .  A
N140        C141   1.347       .  A
C141        C142   1.384       .  A
C141        H144   1.082       .  S
C142        C143   1.382       .  A
C142        C333   1.485       .  S
C143        H145   1.082       .  S
N146        N147   1.323       .  A
N146        C150   1.345       .  A
N147        C148   1.347       .  A
C148        C149   1.383       .  A
C148        H151   1.082       .  S
C149        C150   1.383       .  A
C149        C378   1.486       .  S
C150        H152   1.082       .  S
O153       Cu161   2.012   1_556  S
O153        C163   1.278       .  A
O154       Cu161   2.005       .  S
O154        C164   1.277       .  A
O155       Cu161   2.013       .  S
O155        C165   1.278       .  A
O156       Cu161   2.011   1_556  S
O156        C166   1.278       .  A
O157       Cu162   2.013   1_556  S
O157        C166   1.278       .  A
O158       Cu162   2.008       .  S
O158        C165   1.278       .  A
O159       Cu162   2.000       .  S
O159        C164   1.276       .  A
O160       Cu162   2.001   1_556  S
O160        C163   1.276       .  A
Cu161      Cu162   2.367       .  S
C163        C305   1.507       .  S
C164        C319   1.473       .  S
C165        C504   1.498       .  S
C166        C389   1.492       .  S
O167       Cu175   2.006       .  S
O167        C177   1.278       .  A
O168       Cu175   2.007   1_554  S
O168        C178   1.278       .  A
O169       Cu175   2.009   1_554  S
O169        C179   1.277       .  A
O170       Cu175   2.009       .  S
O170        C180   1.277       .  A
O171       Cu176   2.009       .  S
O171        C180   1.277       .  A
O172       Cu176   2.009   1_554  S
O172        C179   1.278       .  A
O173       Cu176   2.014   1_554  S
O173        C178   1.279       .  A
O174       Cu176   2.018       .  S
O174        C177   1.279       .  A
Cu175      Cu176   2.365       .  S
C177        C336   1.499       .  S
C178        C574   1.497       .  S
C179        C294   1.511       .  S
C180        C280   1.477       .  S
N181        N182   1.322       .  A
N181        C185   1.343       .  A
N181       Cu189   2.070       .  S
N182        C183   1.346       .  A
N182       Cu188   2.074       .  S
C183        C184   1.385       .  A
C183        H186   1.082       .  S
C184        C185   1.383       .  A
C184        C308   1.487       .  S
C185        H187   1.082       .  S
Cu188       N191   2.074       .  S
Cu189       N199   2.070       .  S
Cu190       N192   2.065       .  S
Cu190       N198   2.065       .  S
N191        N192   1.323       .  A
N191        C195   1.345       .  A
N192        C193   1.344       .  A
C193        C194   1.380       .  A
C193        H196   1.082       .  S
C194        C195   1.382       .  A
C194        C434   1.479       .  S
C195        H197   1.082       .  S
N198        N199   1.321       .  A
N198        C202   1.343       .  A
N199        C200   1.345       .  A
C200        C201   1.385       .  A
C200        H203   1.082       .  S
C201        C202   1.383       .  A
C201        C364   1.487       .  S
C202        H204   1.082       .  S
N205        N206   1.323       .  A
N205        C209   1.344       .  A
N205       Cu213   2.069       .  S
N206        C207   1.345       .  A
N206       Cu212   2.070       .  S
C207        C208   1.381       .  A
C207        H210   1.082       .  S
C208        C209   1.380       .  A
C208        C417   1.478       .  S
C209        H211   1.082       .  S
Cu212       N215   2.070       .  S
Cu213       N223   2.069       .  S
Cu214       N216   2.076       .  S
Cu214       N222   2.076       .  S
N215        N216   1.322       .  A
N215        C219   1.344       .  A
N216        C217   1.345       .  A
C217        C218   1.384       .  A
C217        H220   1.082       .  S
C218        C219   1.383       .  A
C218        C291   1.487       .  S
C219        H221   1.082       .  S
N222        N223   1.321       .  A
N222        C226   1.343       .  A
N223        C224   1.345       .  A
C224        C225   1.385       .  A
C224        H227   1.082       .  S
C225        C226   1.386       .  A
C225        C543   1.491       .  S
C226        H228   1.082       .  S
N229        N230   1.322       .  A
N229        C233   1.344       .  A
N229       Cu237   2.070       .  S
N230        C231   1.346       .  A
N230       Cu236   2.076       .  S
C231        C232   1.385       .  A
C231        H234   1.082       .  S
C232        C233   1.383       .  A
C232        C476   1.487       .  S
C233        H235   1.082       .  S
Cu236       N239   2.076       .  S
Cu237       N247   2.070       .  S
Cu238       N240   2.078       .  S
Cu238       N246   2.078       .  S
N239        N240   1.323       .  A
N239        C243   1.345       .  A
N240        C241   1.346       .  A
C241        C242   1.385       .  A
C241        H244   1.082       .  S
C242        C243   1.385       .  A
C242        C277   1.490       .  S
C243        H245   1.082       .  S
N246        N247   1.321       .  A
N246        C250   1.345       .  A
N247        C248   1.344       .  A
C248        C249   1.385       .  A
C248        H251   1.082       .  S
C249        C250   1.387       .  A
C249        C350   1.493       .  S
C250        H252   1.082       .  S
N253        N254   1.321       .  A
N253        C257   1.343       .  A
N253       Cu261   2.062       .  S
N254        C255   1.344       .  A
N254       Cu260   2.073       .  S
C255        C256   1.386       .  A
C255        H258   1.082       .  S
C256        C257   1.384       .  A
C256        C322   1.490       .  S
C257        H259   1.082       .  S
Cu260       N263   2.073       .  S
Cu261       N271   2.063       .  S
Cu262       N264   2.085       .  S
Cu262       N270   2.085       .  S
N263        N264   1.323       .  A
N263        C267   1.345       .  A
N264        C265   1.347       .  A
C265        C266   1.384       .  A
C265        H268   1.082       .  S
C266        C267   1.381       .  A
C266        C462   1.485       .  S
C267        H269   1.082       .  S
N270        N271   1.322       .  A
N270        C274   1.346       .  A
N271        C272   1.344       .  A
C272        C273   1.381       .  A
C272        H275   1.082       .  S
C273        C274   1.386       .  A
C273        C529   1.486       .  S
C274        H276   1.082       .  S
C277        C278   1.416       .  A
C277        C282   1.416       .  A
C278        C279   1.411       .  A
C278        C283   1.451       .  S
C279        C280   1.409       .  A
C279        C286   1.452       .  S
C280        C281   1.409       .  A
C281        C282   1.412       .  A
C281        C284   1.451       .  S
C282        C285   1.451       .  S
C283        N290   1.157       .  T
C284        N289   1.157       .  T
C285        N287   1.157       .  T
C286        N288   1.157       .  T
C291        C292   1.409       .  A
C291        C296   1.408       .  A
C292        C293   1.413       .  A
C292        C297   1.453       .  S
C293        C294   1.426       .  A
C293        C300   1.452       .  S
C294        C295   1.427       .  A
C295        C296   1.413       .  A
C295        C298   1.452       .  S
C296        C299   1.453       .  S
C297        N304   1.157       .  T
C298        N303   1.158       .  T
C299        N301   1.157       .  T
C300        N302   1.158       .  T
C305        C306   1.426       .  A
C305        C310   1.424       .  A
C306        C307   1.411       .  A
C306        C311   1.452       .  S
C307        C308   1.409       .  A
C307        C314   1.453       .  S
C308        C309   1.410       .  A
C309        C310   1.413       .  A
C309        C312   1.452       .  S
C310        C313   1.452       .  S
C311        N318   1.158       .  T
C312        N317   1.157       .  T
C313        N315   1.157       .  T
C314        N316   1.157       .  T
C319        C320   1.408       .  A
C319        C324   1.409       .  A
C320        C321   1.409       .  A
C320        C325   1.452       .  S
C321        C322   1.418       .  A
C321        C328   1.451       .  S
C322        C323   1.417       .  A
C323        C324   1.410       .  A
C323        C326   1.451       .  S
C324        C327   1.452       .  S
C325        N332   1.157       .  T
C326        N331   1.157       .  T
C327        N329   1.157       .  T
C328        N330   1.157       .  T
C333        C334   1.411       .  A
C333        C338   1.409       .  A
C334        C335   1.413       .  A
C334        C339   1.452       .  S
C335        C336   1.420       .  A
C335        C342   1.451       .  S
C336        C337   1.421       .  A
C337        C338   1.412       .  A
C337        C340   1.452       .  S
C338        C341   1.452       .  S
C339        N346   1.157       .  T
C340        N345   1.157       .  T
C341        N343   1.157       .  T
C342        N344   1.157       .  T
C347        C348   1.409       .  A
C347        C352   1.408       .  A
C348        C349   1.411       .  A
C348        C353   1.452       .  S
C349        C350   1.417       .  A
C349        C356   1.451       .  S
C350        C351   1.419       .  A
C351        C352   1.412       .  A
C351        C354   1.451       .  S
C352        C355   1.452       .  S
C353        N360   1.157       .  T
C354        N359   1.157       .  T
C355        N357   1.157       .  T
C356        N358   1.157       .  T
C361        C362   1.427       .  A
C361        C366   1.426       .  A
C362        C363   1.412       .  A
C362        C367   1.452       .  S
C363        C364   1.409       .  A
C363        C370   1.453       .  S
C364        C365   1.410       .  A
C365        C366   1.412       .  A
C365        C368   1.453       .  S
C366        C369   1.452       .  S
C367        N374   1.158       .  T
C368        N373   1.157       .  T
C369        N371   1.158       .  T
C370        N372   1.157       .  T
C375        C376   1.423       .  A
C375        C380   1.421       .  A
C376        C377   1.413       .  A
C376        C381   1.452       .  S
C377        C378   1.409       .  A
C377        C384   1.452       .  S
C378        C379   1.410       .  A
C379        C380   1.411       .  A
C379        C382   1.452       .  S
C380        C383   1.452       .  S
C381        N388   1.158       .  T
C382        N387   1.157       .  T
C383        N385   1.157       .  T
C384        N386   1.157       .  T
C389        C390   1.417       .  A
C389        C394   1.417       .  A
C390        C391   1.412       .  A
C390        C395   1.451       .  S
C391        C392   1.409       .  A
C391        C398   1.451       .  S
C392        C393   1.409       .  A
C393        C394   1.412       .  A
C393        C396   1.451       .  S
C394        C397   1.450       .  S
C395        N402   1.157       .  T
C396        N401   1.157       .  T
C397        N399   1.157       .  T
C398        N400   1.157       .  T
C403        C404   1.419       .  A
C403        C408   1.418       .  A
C404        C405   1.411       .  A
C404        C409   1.451       .  S
C405        C406   1.410       .  A
C405        C412   1.452       .  S
C406        C407   1.410       .  A
C407        C408   1.410       .  A
C407        C410   1.452       .  S
C408        C411   1.452       .  S
C409        N416   1.157       .  T
C410        N415   1.157       .  T
C411        N413   1.157       .  T
C412        N414   1.157       .  T
C417        C418   1.410       .  A
C417        C422   1.409       .  A
C418        C419   1.410       .  A
C418        C423   1.451       .  S
C419        C420   1.417       .  A
C419        C426   1.452       .  S
C420        C421   1.418       .  A
C421        C422   1.410       .  A
C421        C424   1.451       .  S
C422        C425   1.452       .  S
C423        N430   1.157       .  T
C424        N429   1.157       .  T
C425        N427   1.157       .  T
C426        N428   1.157       .  T
C431        C432   1.416       .  A
C431        C436   1.417       .  A
C432        C433   1.410       .  A
C432        C437   1.451       .  S
C433        C434   1.410       .  A
C433        C440   1.452       .  S
C434        C435   1.410       .  A
C435        C436   1.409       .  A
C435        C438   1.451       .  S
C436        C439   1.452       .  S
C437        N444   1.157       .  T
C438        N443   1.157       .  T
C439        N441   1.157       .  T
C440        N442   1.157       .  T
C445        C446   1.411       .  A
C445        C450   1.411       .  A
C446        C447   1.414       .  A
C446        C451   1.453       .  S
C447        C448   1.426       .  A
C447        C454   1.452       .  S
C448        C449   1.425       .  A
C449        C450   1.413       .  A
C449        C452   1.452       .  S
C450        C453   1.453       .  S
C451        N458   1.157       .  T
C452        N457   1.158       .  T
C453        N455   1.157       .  T
C454        N456   1.158       .  T
C459        C460   1.419       .  A
C459        C464   1.418       .  A
C460        C461   1.412       .  A
C460        C465   1.452       .  S
C461        C462   1.410       .  A
C461        C468   1.451       .  S
C462        C463   1.411       .  A
C463        C464   1.413       .  A
C463        C466   1.451       .  S
C464        C467   1.451       .  S
C465        N472   1.157       .  T
C466        N471   1.157       .  T
C467        N469   1.157       .  T
C468        N470   1.157       .  T
C473        C474   1.424       .  A
C473        C478   1.423       .  A
C474        C475   1.413       .  A
C474        C479   1.451       .  S
C475        C476   1.410       .  A
C475        C482   1.453       .  S
C476        C477   1.409       .  A
C477        C478   1.412       .  A
C477        C480   1.452       .  S
C478        C481   1.452       .  S
C479        N486   1.158       .  T
C480        N485   1.157       .  T
C481        N483   1.157       .  T
C482        N484   1.157       .  T
C487        C488   1.409       .  A
C487        C492   1.409       .  A
C488        C489   1.413       .  A
C488        C493   1.452       .  S
C489        C490   1.418       .  A
C489        C496   1.451       .  S
C490        C491   1.418       .  A
C491        C492   1.412       .  A
C491        C494   1.451       .  S
C492        C495   1.452       .  S
C493        N500   1.157       .  T
C494        N499   1.157       .  T
C495        N497   1.157       .  T
C496        N498   1.157       .  T
C501        C502   1.409       .  A
C501        C506   1.409       .  A
C502        C503   1.411       .  A
C502        C507   1.452       .  S
C503        C504   1.421       .  A
C503        C510   1.452       .  S
C504        C505   1.420       .  A
C505        C506   1.413       .  A
C505        C508   1.451       .  S
C506        C509   1.451       .  S
C507        N514   1.157       .  T
C508        N513   1.157       .  T
C509        N511   1.157       .  T
C510        N512   1.157       .  T
C515        C516   1.417       .  A
C515        C520   1.418       .  A
C516        C517   1.410       .  A
C516        C521   1.451       .  S
C517        C518   1.408       .  A
C517        C524   1.452       .  S
C518        C519   1.410       .  A
C519        C520   1.413       .  A
C519        C522   1.452       .  S
C520        C523   1.450       .  S
C521        N528   1.157       .  T
C522        N527   1.157       .  T
C523        N525   1.157       .  T
C524        N526   1.157       .  T
C529        C530   1.410       .  A
C529        C534   1.408       .  A
C530        C531   1.414       .  A
C530        C535   1.452       .  S
C531        C532   1.425       .  A
C531        C538   1.451       .  S
C532        C533   1.425       .  A
C533        C534   1.411       .  A
C533        C536   1.451       .  S
C534        C537   1.453       .  S
C535        N542   1.157       .  T
C536        N541   1.157       .  T
C537        N539   1.157       .  T
C538        N540   1.158       .  T
C543        C544   1.417       .  A
C543        C548   1.417       .  A
C544        C545   1.410       .  A
C544        C549   1.451       .  S
C545        C546   1.409       .  A
C545        C552   1.451       .  S
C546        C547   1.410       .  A
C547        C548   1.412       .  A
C547        C550   1.452       .  S
C548        C551   1.451       .  S
C549        N556   1.157       .  T
C550        N555   1.157       .  T
C551        N553   1.157       .  T
C552        N554   1.157       .  T
C557        C558   1.416       .  A
C557        C562   1.417       .  A
C558        C559   1.411       .  A
C558        C563   1.450       .  S
C559        C560   1.409       .  A
C559        C566   1.451       .  S
C560        C561   1.409       .  A
C561        C562   1.411       .  A
C561        C564   1.451       .  S
C562        C565   1.451       .  S
C563        N570   1.157       .  T
C564        N569   1.157       .  T
C565        N567   1.157       .  T
C566        N568   1.157       .  T
C571        C572   1.410       .  A
C571        C576   1.410       .  A
C572        C573   1.411       .  A
C572        C577   1.452       .  S
C573        C574   1.420       .  A
C573        C580   1.452       .  S
C574        C575   1.419       .  A
C575        C576   1.413       .  A
C575        C578   1.451       .  S
C576        C579   1.451       .  S
C577        N584   1.157       .  T
C578        N583   1.157       .  T
C579        N581   1.157       .  T
C580        N582   1.157       .  T
C585        C586   1.409       .  A
C585        C590   1.409       .  A
C586        C587   1.411       .  A
C586        C591   1.452       .  S
C587        C588   1.417       .  A
C587        C594   1.451       .  S
C588        C589   1.416       .  A
C589        C590   1.411       .  A
C589        C592   1.451       .  S
C590        C593   1.451       .  S
C591        N598   1.157       .  T
C592        N597   1.157       .  T
C593        N595   1.157       .  T
C594        N596   1.157       .  T
C599        C600   1.409       .  A
C599        C604   1.410       .  A
C600        C601   1.411       .  A
C600        C605   1.453       .  S
C601        C602   1.423       .  A
C601        C608   1.451       .  S
C602        C603   1.422       .  A
C603        C604   1.413       .  A
C603        C606   1.452       .  S
C604        C607   1.452       .  S
C605        N612   1.157       .  T
C606        N611   1.158       .  T
C607        N609   1.157       .  T
C608        N610   1.157       .  T
