geometry optimzed in LAMMPS
_audit_creation_date              2020-11-30 
_audit_creation_method            'lammps2cif' 
_symmetry_space_group_name_H-M    'P1' 
_symmetry_Int_Tables_number       1 
_symmetry_cell_setting            triclinic 
loop_ 
_symmetry_equiv_pos_as_xyz 
  x,y,z 
_cell_length_a                    46.27927639832681 
_cell_length_b                    46.04429577909531 
_cell_length_c                    46.16059684821097 
_cell_angle_alpha                 90.35466391891711 
_cell_angle_beta                  90.0940600361984 
_cell_angle_gamma                 89.85391655442855 
loop_ 
_atom_site_label 
_atom_site_type_symbol 
_atom_site_fract_x 
_atom_site_fract_y 
_atom_site_fract_z 
_atom_site_charge 
O1          O  0.31631900  0.90943362  0.70178814    -0.81400
O2          O  0.43780165  0.86377548  0.71615948    -0.81420
O3          O  0.37436154  0.84242815  0.74417169    -0.81430
O4          O  0.40943467  0.95160750  0.70889371    -0.81370
O5          O  0.40230737  0.81576759  0.71756846    -0.81500
O6          O  0.36445295  0.93670303  0.71420431    -0.81410
O7          O  0.41106274  0.89871425  0.73527277    -0.81400
O8          O  0.33721760  0.88595554  0.73638055    -0.81440
C9          C  0.31635168  0.90101572  0.72768838     1.08290
C10         C  0.43212549  0.88134256  0.73699073     1.08180
C11         C  0.38888692  0.81963709  0.74130591     1.08310
C12         C  0.38507061  0.95421635  0.72121751     1.08190
O13         O  0.34114981  0.94285618  0.66099061    -0.81400
O14         O  0.38603474  0.82524740  0.65834849    -0.81480
O15         O  0.31571056  0.85790704  0.68318139    -0.81410
O16         O  0.43852669  0.90640530  0.68025699    -0.81390
O17         O  0.42401802  0.87045980  0.65389650    -0.81440
O18         O  0.33522128  0.88471712  0.64894728    -0.81410
O19         O  0.38794671  0.93294673  0.65755146    -0.81370
O20         O  0.35359407  0.81367568  0.69117986    -0.81440
Co21       Co  0.35364951  0.90902027  0.67960879     1.51530
Co22       Co  0.41072459  0.84591832  0.68615736     1.51690
Co23       Co  0.34693413  0.85152185  0.71313597     1.51570
Co24       Co  0.39845621  0.91314179  0.69726638     1.51470
O25         O  0.37736806  0.87463459  0.69272260    -1.43330
C26         C  0.36571713  0.94880381  0.65058405     1.08220
C27         C  0.36719245  0.80785138  0.66775031     1.08310
C28         C  0.31440648  0.86906802  0.65790908     1.08240
C29         C  0.44342053  0.88872320  0.65961626     1.08220
O30         O  0.21368178  0.91522774  0.82458277    -0.81400
O31         O  0.14531601  0.82642702  0.92013815    -0.81420
O32         O  0.23460004  0.83770438  0.87721119    -0.81430
O33         O  0.13244642  0.88778448  0.84524335    -0.81370
O34         O  0.19808159  0.81461986  0.89627425    -0.81500
O35         O  0.17489940  0.87208976  0.83350060    -0.81410
O36         O  0.12989842  0.84075128  0.87849159    -0.81400
O37         O  0.24327160  0.88033334  0.83856848    -0.81440
C38         C  0.23603768  0.89949427  0.81984534     1.08290
C39         C  0.13294466  0.82095545  0.89660256     1.08180
C40         C  0.22312302  0.81446223  0.88579688     1.08310
C41         C  0.14944837  0.87845492  0.82591117     1.08190
O42         O  0.16205023  0.93141257  0.85526958    -0.81400
O43         O  0.22214990  0.85482644  0.93811958    -0.81480
O44         O  0.24347638  0.90492178  0.88830644    -0.81410
O45         O  0.12732549  0.87886040  0.93190449    -0.81390
O46         O  0.17040051  0.87207286  0.95168447    -0.81440
O47         O  0.21018540  0.93530850  0.88033156    -0.81410
O48         O  0.13795464  0.92406866  0.89587441    -0.81370
O49         O  0.24294019  0.88318217  0.90584830    -0.81440
Co50       Co  0.19317623  0.90146007  0.85941964     1.51530
Co51       Co  0.18398317  0.84464787  0.92356326     1.51690
Co52       Co  0.21544156  0.87577559  0.87034493     1.51570
Co53       Co  0.13497526  0.88235827  0.88853946     1.51470
O54         O  0.17924885  0.87912250  0.89522936    -1.43330
C55         C  0.14652627  0.94069380  0.87611333     1.08220
C56         C  0.24180187  0.87214590  0.93154445     1.08310
C57         C  0.23616238  0.93156707  0.88611064     1.08240
C58         C  0.14459104  0.88024000  0.95356449     1.08220
O59         O  0.36231439  0.73218375  0.84996148    -0.81400
O60         O  0.32964585  0.63544853  0.87762252    -0.81420
O61         O  0.40361420  0.68349100  0.84201364    -0.81430
O62         O  0.30979735  0.70527823  0.90681123    -0.81370
O63         O  0.37531520  0.64406924  0.84494453    -0.81500
O64         O  0.33806482  0.74373072  0.89956365    -0.81410
O65         O  0.31847485  0.64754957  0.92145997    -0.81400
O66         O  0.40378028  0.71504646  0.84092656    -0.81440
C67         C  0.38339202  0.73198677  0.83287717     1.08290
C68         C  0.31056639  0.63998003  0.89657733     1.08180
C69         C  0.38924169  0.66207926  0.83037791     1.08310
C70         C  0.31308660  0.73187813  0.90066822     1.08190
O71         O  0.39200361  0.72495454  0.93015129    -0.81400
O72         O  0.41649204  0.63342224  0.88980284    -0.81480
O73         O  0.43327597  0.73188282  0.88215527    -0.81410
O74         O  0.36888276  0.66560909  0.95232805    -0.81390
O75         O  0.36967472  0.62460285  0.92786390    -0.81440
O76         O  0.39696457  0.76262112  0.88761291    -0.81410
O77         O  0.34949211  0.72074744  0.94799955    -0.81370
O78         O  0.43679217  0.67649800  0.88748747    -0.81440
Co79       Co  0.37652831  0.72509675  0.88982119     1.51530
Co80       Co  0.37241806  0.63775258  0.88578106     1.51690
Co81       Co  0.40297978  0.70196393  0.88378133     1.51570
Co82       Co  0.33903434  0.68432940  0.92913163     1.51470
O83         O  0.36498649  0.68210044  0.89260182    -1.43330
C84         C  0.37382449  0.73195484  0.94907034     1.08220
C85         C  0.43907478  0.64935694  0.88918137     1.08310
C86         C  0.42420999  0.75785502  0.88617271     1.08240
C87         C  0.37319130  0.63869505  0.95148237     1.08220
O88         O  0.32696194  0.04160664  0.87579886    -0.81400
O89         O  0.41221905  0.11261287  0.93078731    -0.81420
O90         O  0.37117333  0.04485723  0.92782767    -0.81430
O91         O  0.32563645  0.11598448  0.88924424    -0.81370
O92         O  0.41781974  0.05514234  0.92909264    -0.81500
O93         O  0.32281255  0.09464040  0.84718264    -0.81410
O94         O  0.36568815  0.12306989  0.92809864    -0.81400
O95         O  0.35458711  0.00439863  0.88763136    -0.81440
C96         C  0.32951171  0.01478093  0.88405266     1.08290
C97         C  0.38793109  0.11855387  0.94280153     1.08180
C98         C  0.39565858  0.04342265  0.94026218     1.08310
C99         C  0.31080926  0.10736076  0.86824130     1.08190
O100        O  0.38177414  0.09091801  0.82853372    -0.81400
O101        O  0.43251814  0.05711908  0.86731614    -0.81480
O102        O  0.37940869  0.03004147  0.84186339    -0.81410
O103        O  0.40666068  0.14744273  0.88801911    -0.81390
O104        O  0.42597688  0.11195859  0.86626491    -0.81440
O105        O  0.34188993  0.04722140  0.81866944    -0.81410
O106        O  0.36555550  0.13353959  0.84335579    -0.81370
O107        O  0.41057086  0.02120093  0.88759076    -0.81440
Co108      Co  0.35618057  0.06747205  0.85228187     1.51530
Co109      Co  0.42061755  0.08456554  0.89730506     1.51690
Co110      Co  0.37234863  0.04091610  0.88547969     1.51570
Co111      Co  0.36645192  0.12730708  0.88675778     1.51470
O112        O  0.37942731  0.08387566  0.88474858    -1.43330
C113        C  0.37524732  0.11698597  0.82331455     1.08220
C114        C  0.43222911  0.03107217  0.87447283     1.08310
C115        C  0.36298276  0.02988909  0.81942793     1.08240
C116        C  0.42876502  0.13693420  0.87552892     1.08220
O117        O  0.33917208  0.84010685  0.03437643    -0.81400
O118        O  0.42842781  0.91576772  0.08803491    -0.81420
O119        O  0.42881189  0.87563221  0.03396974    -0.81430
O120        O  0.37941027  0.84444408  0.12305255    -0.81370
O121        O  0.43539859  0.91584146  0.05796635    -0.81500
O122        O  0.35412548  0.82910309  0.08626665    -0.81410
O123        O  0.40979724  0.89487561  0.12737276    -0.81400
O124        O  0.38559313  0.84047925  0.02987043    -0.81440
C125        C  0.36190983  0.82912979  0.02391355     1.08290
C126        C  0.43128004  0.90450779  0.11322095     1.08180
C127        C  0.44508683  0.89611886  0.04070767     1.08310
C128        C  0.36998097  0.82375717  0.10769853     1.08190
O129        O  0.30247906  0.85455631  0.07839455    -0.81400
O130        O  0.40310874  0.95907315  0.04991063    -0.81480
O131        O  0.34808865  0.88821456  0.01126812    -0.81410
O132        O  0.35484135  0.92834106  0.11902913    -0.81390
O133        O  0.39291661  0.94770933  0.10064647    -0.81440
O134        O  0.32291626  0.90005632  0.04933201    -0.81410
O135        O  0.32388047  0.87704631  0.11570766    -0.81370
O136        O  0.39443541  0.92588082  0.01632009    -0.81440
Co137      Co  0.34001665  0.86632237  0.06971936     1.51530
Co138      Co  0.39198605  0.92350596  0.06552385     1.51690
Co139      Co  0.38825525  0.88248545  0.02719992     1.51570
Co140      Co  0.36834321  0.88616227  0.11732520     1.51470
O141        O  0.37873887  0.88406534  0.07211193    -1.43330
C142        C  0.30109001  0.86619623  0.10325572     1.08220
C143        C  0.40056213  0.95231447  0.02357874     1.08310
C144        C  0.32470344  0.89746946  0.02214798     1.08240
C145        C  0.37050421  0.95046003  0.11531547     1.08220
O146        O  0.53334668  0.88738764  0.83123052    -0.81400
O147        O  0.59707680  0.94234260  0.90884836    -0.81420
O148        O  0.52566665  0.93096505  0.87615376    -0.81430
O149        O  0.62821971  0.87059465  0.84380321    -0.81370
O150        O  0.54434006  0.95808565  0.91019593    -0.81500
O151        O  0.58817038  0.88458970  0.82553180    -0.81410
O152        O  0.62311258  0.92472429  0.87384067    -0.81400
O153        O  0.50149918  0.88052713  0.86412791    -0.81440
C154        C  0.50754425  0.88317503  0.83757424     1.08290
C155        C  0.61529953  0.94625288  0.88924753     1.08180
C156        C  0.52653315  0.95523133  0.88962735     1.08310
C157        C  0.61288529  0.87510788  0.82147523     1.08190
O158        O  0.59033222  0.82812783  0.85672854    -0.81400
O159        O  0.54194735  0.91066381  0.93863259    -0.81480
O160        O  0.52919751  0.85206863  0.91145182    -0.81410
O161        O  0.61507452  0.89164506  0.92843454    -0.81390
O162        O  0.56972818  0.90554874  0.93850242    -0.81440
O163        O  0.53212288  0.83441200  0.86713029    -0.81410
O164        O  0.61434995  0.84152435  0.89640230    -0.81370
O165        O  0.49873537  0.90165495  0.92021009    -0.81440
Co166      Co  0.56177311  0.85982861  0.84664764     1.51530
Co167      Co  0.56133206  0.92156830  0.89893735     1.51690
Co168      Co  0.53059002  0.89144308  0.89554692     1.51570
Co169      Co  0.61697871  0.88267506  0.88560108     1.51470
O170        O  0.57178388  0.88353787  0.88117846    -1.43330
C171        C  0.60533501  0.82212096  0.87913765     1.08220
C172        C  0.51416202  0.90737783  0.94221268     1.08310
C173        C  0.52147081  0.83351589  0.89273204     1.08240
C174        C  0.59485564  0.89661566  0.94655505     1.08220
O175        O  0.85428525  0.32532411  0.72284180    -0.81400
O176        O  0.89302035  0.45006778  0.71637296    -0.81420
O177        O  0.90372484  0.38388577  0.74850053    -0.81430
O178        O  0.80547959  0.41668224  0.71551445    -0.81370
O179        O  0.93471599  0.40901837  0.72344761    -0.81500
O180        O  0.82681455  0.37652247  0.73054104    -0.81410
O181        O  0.85929938  0.42507187  0.73767931    -0.81400
O182        O  0.89944107  0.32444248  0.74166294    -0.81440
C183        C  0.87357737  0.31446943  0.74049894     1.08290
C184        C  0.87653116  0.44637761  0.73779358     1.08180
C185        C  0.92735157  0.39761440  0.74721564     1.08310
C186        C  0.80577235  0.39472028  0.73222345     1.08190
O187        O  0.80852829  0.34624047  0.68390267    -0.81400
O188        O  0.92931633  0.39137231  0.66532079    -0.81480
O189        O  0.89584466  0.32546053  0.68546118    -0.81410
O190        O  0.84748724  0.44478139  0.67957782    -0.81390
O191        O  0.88811339  0.43541008  0.65624083    -0.81440
O192        O  0.85940883  0.33800263  0.65926073    -0.81410
O193        O  0.82061005  0.38925353  0.66625781    -0.81370
O194        O  0.93668579  0.35908791  0.70075375    -0.81440
Co195      Co  0.84566651  0.35988849  0.69388161     1.51530
Co196      Co  0.90951220  0.41957648  0.68985130     1.51690
Co197      Co  0.89627680  0.35650834  0.71635034     1.51570
Co198      Co  0.84292175  0.40686333  0.70150402     1.51470
O199        O  0.88008988  0.38700166  0.69371700    -1.43330
C200        C  0.80270612  0.36748874  0.66748109     1.08220
C201        C  0.94425134  0.37151310  0.67705157     1.08310
C202        C  0.87955431  0.32044260  0.66425959     1.08240
C203        C  0.86657322  0.45184904  0.66090054     1.08220
O204        O  0.84637007  0.21640158  0.84101917    -0.81400
O205        O  0.83276498  0.14075680  0.88655597    -0.81420
O206        O  0.91419015  0.16588137  0.83568390    -0.81430
O207        O  0.81495920  0.21361763  0.90213419    -0.81370
O208        O  0.87152240  0.14585065  0.83846132    -0.81500
O209        O  0.82731105  0.25515041  0.88151081    -0.81410
O210        O  0.81938034  0.18549783  0.90079681    -0.81400
O211        O  0.89256267  0.22109622  0.83071457    -0.81440
C212        C  0.86584190  0.22410191  0.82358672     1.08290
C213        C  0.81332434  0.15920424  0.89369554     1.08180
C214        C  0.89219266  0.15576714  0.82319197     1.08310
C215        C  0.80778151  0.23934085  0.89220065     1.08190
O216        O  0.86739539  0.24239707  0.92212417    -0.81400
O217        O  0.92044596  0.13541030  0.87856968    -0.81480
O218        O  0.91755546  0.23123591  0.88990878    -0.81410
O219        O  0.85005077  0.16466365  0.94153784    -0.81390
O220        O  0.88370301  0.13606074  0.92465817    -0.81440
O221        O  0.88526617  0.25701953  0.86912066    -0.81410
O222        O  0.83945934  0.21738844  0.95066398    -0.81370
O223        O  0.93621126  0.17788885  0.89233939    -0.81440
Co224      Co  0.85621888  0.22597267  0.88131050     1.51530
Co225      Co  0.87643146  0.14224027  0.88176717     1.51690
Co226      Co  0.91378893  0.19885007  0.86331783     1.51570
Co227      Co  0.85639177  0.19956374  0.91785470     1.51470
O228        O  0.87789198  0.18723731  0.88322169    -1.43330
C229        C  0.85435436  0.23976925  0.94649779     1.08220
C230        C  0.94118672  0.15153635  0.88759006     1.08310
C231        C  0.91050241  0.25494235  0.87933184     1.08240
C232        C  0.86949061  0.14611800  0.94591240     1.08220
O233        O  0.71369692  0.39958186  0.83923135    -0.81400
O234        O  0.65570250  0.33583827  0.93111484    -0.81420
O235        O  0.71284412  0.33582979  0.87270502    -0.81430
O236        O  0.64472954  0.37604509  0.84295756    -0.81370
O237        O  0.71176658  0.33020928  0.92019395    -0.81500
O238        O  0.66140763  0.42043624  0.84209704    -0.81410
O239        O  0.64249173  0.33492812  0.88554939    -0.81400
O240        O  0.75261057  0.37613693  0.85502676    -0.81440
C241        C  0.73909949  0.38883657  0.83492293     1.08290
C242        C  0.64794305  0.32168694  0.90880005     1.08180
C243        C  0.71662453  0.31983821  0.89474622     1.08310
C244        C  0.65138491  0.39839802  0.82867336     1.08190
O245        O  0.66685932  0.43908360  0.90226143    -0.81400
O246        O  0.72005115  0.39125618  0.94164589    -0.81480
O247        O  0.73325115  0.41996488  0.88861731    -0.81410
O248        O  0.62367099  0.37926089  0.92802634    -0.81390
O249        O  0.66336237  0.39665159  0.94649997    -0.81440
O250        O  0.70843831  0.45237009  0.86330808    -0.81410
O251        O  0.62701605  0.42085488  0.88444581    -0.81370
O252        O  0.74727516  0.36890510  0.91113468    -0.81440
Co253      Co  0.69070216  0.41740529  0.87419142     1.51530
Co254      Co  0.68747322  0.36493001  0.93337243     1.51690
Co255      Co  0.71991238  0.37756688  0.87864230     1.51570
Co256      Co  0.63679278  0.37761073  0.88538697     1.51470
O257        O  0.68026705  0.38109901  0.89404378    -1.43330
C258        C  0.64094364  0.44269687  0.89430622     1.08220
C259        C  0.74460703  0.38189455  0.93505007     1.08310
C260        C  0.73037906  0.44595601  0.87861504     1.08240
C261        C  0.63731110  0.39052282  0.94950721     1.08220
O262        O  0.03742351  0.38220922  0.83496549    -0.81400
O263        O  0.07752038  0.44164699  0.90974378    -0.81420
O264        O  0.00908836  0.42388057  0.90861146    -0.81430
O265        O  0.11084985  0.38650546  0.84343111    -0.81370
O266        O  0.05034169  0.44500851  0.91320199    -0.81500
O267        O  0.08259569  0.34893882  0.83486697    -0.81410
O268        O  0.11828855  0.42397493  0.88975066    -0.81400
O269        O  0.00234517  0.38920547  0.86457809    -0.81440
C270        C  0.01197788  0.39000982  0.83919579     1.08290
C271        C  0.10181868  0.44517673  0.89656772     1.08180
C272        C  0.02337976  0.44701137  0.90923767     1.08310
C273        C  0.10055684  0.36775086  0.82595298     1.08190
O274        O  0.06931882  0.32885100  0.89381166    -0.81400
O275        O  0.04559795  0.41687482  0.96214520    -0.81480
O276        O  0.01815374  0.33893548  0.89662441    -0.81410
O277        O  0.11726447  0.37244024  0.92908053    -0.81390
O278        O  0.09780089  0.41198331  0.94498891    -0.81440
O279        O  0.02778905  0.32635872  0.85128923    -0.81410
O280        O  0.11313599  0.33717074  0.88087980    -0.81370
O281        O  0.03075193  0.37500314  0.94517163    -0.81440
Co282      Co  0.05254968  0.35649348  0.86533075     1.51530
Co283      Co  0.06090992  0.40486569  0.92529014     1.51690
Co284      Co  0.02137371  0.38241402  0.90229972     1.51570
Co285      Co  0.11166801  0.38081555  0.88633254     1.51470
O286        O  0.06685243  0.38875666  0.88723528    -1.43330
C287        C  0.09401487  0.31926492  0.88845731     1.08220
C288        C  0.03121656  0.39383761  0.96592534     1.08310
C289        C  0.01233537  0.32374189  0.87391151     1.08240
C290        C  0.11358008  0.39050853  0.94941302     1.08220
O291        O  0.83242102  0.33247116  0.04726811    -0.81400
O292        O  0.92346817  0.42412891  0.12061798    -0.81420
O293        O  0.91656057  0.38344072  0.03204644    -0.81430
O294        O  0.87151766  0.34137015  0.13828634    -0.81370
O295        O  0.93659250  0.39940791  0.07121924    -0.81500
O296        O  0.86842977  0.32700941  0.09271920    -0.81410
O297        O  0.91389913  0.38242201  0.14215792    -0.81400
O298        O  0.87852722  0.34201197  0.04094948    -0.81440
C299        C  0.85632039  0.32607685  0.03557850     1.08290
C300        C  0.93158096  0.40234217  0.13549905     1.08180
C301        C  0.93902877  0.38856172  0.04629339     1.08310
C302        C  0.87334637  0.32193105  0.11894016     1.08190
O303        O  0.81616976  0.35980178  0.09598105    -0.81400
O304        O  0.91505706  0.45328672  0.06644773    -0.81480
O305        O  0.86244593  0.38706650  0.00952933    -0.81410
O306        O  0.87094566  0.42710229  0.14268280    -0.81390
O307        O  0.86690207  0.44203129  0.09826700    -0.81440
O308        O  0.83132723  0.39085494  0.04555421    -0.81410
O309        O  0.82740225  0.38602687  0.13457874    -0.81370
O310        O  0.87824755  0.43140046  0.04359213    -0.81440
Co311      Co  0.85124359  0.36016394  0.07173707     1.51530
Co312      Co  0.90061516  0.41945364  0.08407420     1.51690
Co313      Co  0.87713464  0.38623285  0.04757657     1.51570
Co314      Co  0.87122835  0.38422183  0.13627804     1.51470
O315        O  0.88059395  0.38460172  0.09229429    -1.43330
C316        C  0.80879458  0.37327031  0.11864781     1.08220
C317        C  0.89723452  0.45209412  0.04539921     1.08310
C318        C  0.83676983  0.39132138  0.01799148     1.08240
C319        C  0.86576890  0.44724916  0.12502388     1.08220
O320        O  0.82264130  0.54875882  0.89973717    -0.81400
O321        O  0.89697905  0.61337743  0.94061291    -0.81420
O322        O  0.87661537  0.53443036  0.93386354    -0.81430
O323        O  0.83311381  0.63994908  0.86917151    -0.81370
O324        O  0.90484308  0.56308187  0.95884750    -0.81500
O325        O  0.81564135  0.60419864  0.89239910    -0.81410
O326        O  0.86359753  0.63947513  0.92068426    -0.81400
O327        O  0.85224317  0.51455512  0.88703871    -0.81440
C328        C  0.82727179  0.52234817  0.89539342     1.08290
C329        C  0.87694928  0.63153858  0.94313231     1.08180
C330        C  0.89054064  0.54007042  0.95741678     1.08310
C331        C  0.81127006  0.62763955  0.87991627     1.08190
O332        O  0.83986987  0.59944120  0.83213752    -0.81400
O333        O  0.92859613  0.55551248  0.90885601    -0.81480
O334        O  0.89203851  0.53984140  0.84727745    -0.81410
O335        O  0.91757995  0.62761452  0.88756807    -0.81390
O336        O  0.92817096  0.58388560  0.90548480    -0.81440
O337        O  0.84509485  0.54170456  0.84045643    -0.81410
O338        O  0.88311335  0.61976443  0.83907731    -0.81370
O339        O  0.91273956  0.51168166  0.89502656    -0.81440
Co340      Co  0.83200974  0.57414032  0.86745210     1.51530
Co341      Co  0.88929276  0.57543712  0.92273777     1.51690
Co342      Co  0.88609526  0.54228944  0.89002818     1.51570
Co343      Co  0.87470502  0.62845468  0.87975225     1.51470
O344        O  0.86957839  0.58342412  0.88560809    -1.43330
C345        C  0.86304448  0.61119585  0.82241982     1.08220
C346        C  0.93352195  0.52801073  0.90287228     1.08310
C347        C  0.86982889  0.53214178  0.83279283     1.08240
C348        C  0.93591148  0.60857574  0.89535541     1.08220
O349        O  0.82118210  0.88822338  0.22354416    -0.81400
O350        O  0.94375291  0.86702591  0.21030090    -0.81420
O351        O  0.86698852  0.84864776  0.23713769    -0.81430
O352        O  0.87100675  0.92235183  0.24088502    -0.81370
O353        O  0.90159305  0.82636591  0.21267250    -0.81500
O354        O  0.84017833  0.93917248  0.21040059    -0.81410
O355        O  0.91670358  0.89104254  0.24040981    -0.81400
O356        O  0.81146597  0.84186710  0.21752646    -0.81440
C357        C  0.80622268  0.86581405  0.23024199     1.08290
C358        C  0.94040024  0.87959306  0.23460741     1.08180
C359        C  0.88689256  0.82998918  0.23588792     1.08310
C360        C  0.85019257  0.93861407  0.23575840     1.08190
O361        O  0.85957799  0.92373065  0.15410233    -0.81400
O362        O  0.88374840  0.84272090  0.15299490    -0.81480
O363        O  0.82137037  0.86610185  0.16484288    -0.81410
O364        O  0.93726286  0.91647750  0.18695962    -0.81390
O365        O  0.92442661  0.88507747  0.15372513    -0.81440
O366        O  0.80523672  0.91043732  0.17329080    -0.81410
O367        O  0.88714143  0.94889839  0.18452558    -0.81370
O368        O  0.85621971  0.82030689  0.18287212    -0.81440
Co369      Co  0.84235980  0.90269575  0.18673511     1.51530
Co370      Co  0.91150113  0.85636127  0.18204735     1.51690
Co371      Co  0.84628501  0.85860604  0.20197885     1.51570
Co372      Co  0.90165576  0.91824891  0.21251246     1.51470
O373        O  0.88063088  0.88491437  0.19443660    -1.43330
C374        C  0.87280062  0.94697706  0.16087677     1.08220
C375        C  0.87131374  0.81977863  0.16003646     1.08310
C376        C  0.80228868  0.88623718  0.16084030     1.08240
C377        C  0.94284272  0.90271018  0.16363343     1.08220
O378        O  0.93706656  0.71135642  0.35378665    -0.81400
O379        O  0.88499093  0.66122721  0.44244486    -0.81420
O380        O  0.87423582  0.75129184  0.41408320    -0.81430
O381        O  0.91374641  0.63050554  0.38725716    -0.81370
O382        O  0.88870305  0.71610480  0.43993705    -0.81500
O383        O  0.92472795  0.65480937  0.34774622    -0.81410
O384        O  0.86521612  0.62448384  0.42212262    -0.81400
O385        O  0.92347441  0.72756329  0.39505003    -0.81440
C386        C  0.94274078  0.72577617  0.37630706     1.08290
C387        C  0.87620725  0.63588101  0.44448477     1.08180
C388        C  0.88193348  0.74219891  0.43838139     1.08310
C389        C  0.93197785  0.63850733  0.36868658     1.08190
O390        O  0.86477588  0.67331152  0.32875480    -0.81400
O391        O  0.83034623  0.72067054  0.41234816    -0.81480
O392        O  0.89059869  0.76294006  0.36089069    -0.81410
O393        O  0.83050332  0.64295377  0.37418170    -0.81390
O394        O  0.82508974  0.66273151  0.41742413    -0.81440
O395        O  0.88175704  0.72821576  0.32959974    -0.81410
O396        O  0.87717114  0.63014168  0.33702723    -0.81370
O397        O  0.84235915  0.72867120  0.36743559    -0.81440
Co398      Co  0.89989213  0.69080973  0.34442809     1.51530
Co399      Co  0.85889212  0.68963065  0.42513821     1.51690
Co400      Co  0.88352270  0.72650062  0.37951458     1.51570
Co401      Co  0.87231725  0.63722986  0.38053182     1.51470
O402        O  0.87997325  0.68353550  0.38616376    -1.43330
C403        C  0.86980861  0.64881498  0.31872452     1.08220
C404        C  0.82476493  0.73231483  0.38796800     1.08310
C405        C  0.88691785  0.75502198  0.33497600     1.08240
C406        C  0.81437930  0.65079172  0.39490226     1.08220
O407        O  0.71694819  0.91275180  0.33140626    -0.81400
O408        O  0.66004944  0.82629411  0.37181167    -0.81420
O409        O  0.74827316  0.85139810  0.39764718    -0.81430
O410        O  0.63531046  0.87598137  0.33853569    -0.81370
O411        O  0.71572639  0.82403325  0.37850143    -0.81500
O412        O  0.66031311  0.91619055  0.33158864    -0.81410
O413        O  0.62078674  0.84304118  0.38802492    -0.81400
O414        O  0.73239355  0.87266517  0.34824751    -0.81440
C415        C  0.73095250  0.88973889  0.32756874     1.08290
C416        C  0.63496178  0.82124369  0.37966238     1.08180
C417        C  0.74129019  0.82704580  0.38708350     1.08310
C418        C  0.64596789  0.89466902  0.32164702     1.08190
O419        O  0.66447729  0.93941137  0.39340569    -0.81400
O420        O  0.71092670  0.85047805  0.43711433    -0.81480
O421        O  0.75958698  0.90975862  0.38745622    -0.81410
O422        O  0.63457058  0.89333445  0.42222538    -0.81390
O423        O  0.65303740  0.85022111  0.43237153    -0.81440
O424        O  0.72059820  0.93635665  0.39125628    -0.81410
O425        O  0.62592433  0.92708506  0.37252939    -0.81370
O426        O  0.71860701  0.89636919  0.42931500    -0.81440
Co427      Co  0.68964571  0.92208367  0.36376543     1.51530
Co428      Co  0.68447237  0.84049372  0.40325830     1.51690
Co429      Co  0.72423799  0.88679858  0.38769322     1.51570
Co430      Co  0.63491867  0.88440530  0.38055563     1.51470
O431        O  0.68170347  0.87995931  0.38204442    -1.43330
C432        C  0.64074701  0.94715516  0.38352961     1.08220
C433        C  0.72113895  0.87463729  0.44566361     1.08310
C434        C  0.74799764  0.93462177  0.38990887     1.08240
C435        C  0.64105555  0.87393486  0.44028111     1.08220
O436        O  0.04062610  0.88080193  0.33590485    -0.81400
O437        O  0.09090889  0.94811840  0.39954526    -0.81420
O438        O  0.03428205  0.92743909  0.36824757    -0.81430
O439        O  0.11931458  0.89272043  0.34575111    -0.81370
O440        O  0.03594836  0.94121979  0.41274639    -0.81500
O441        O  0.09008222  0.85645991  0.33566760    -0.81410
O442        O  0.13191308  0.92468168  0.39312892    -0.81400
O443        O  0.99855339  0.88268968  0.35732212    -0.81440
C444        C  0.01312441  0.88188551  0.33385729     1.08290
C445        C  0.11622280  0.94730936  0.39001681     1.08180
C446        C  0.02809012  0.94600076  0.38733108     1.08310
C447        C  0.10813934  0.87561588  0.32767836     1.08190
O448        O  0.07911640  0.82960261  0.39458451    -0.81400
O449        O  0.05028632  0.89343431  0.44824594    -0.81480
O450        O  0.02449747  0.84247626  0.39177149    -0.81410
O451        O  0.12449522  0.86987282  0.42798332    -0.81390
O452        O  0.10780690  0.91089797  0.44477637    -0.81440
O453        O  0.03990989  0.82423482  0.35108083    -0.81410
O454        O  0.12104209  0.83858310  0.37708310    -0.81370
O455        O  0.01265237  0.89329379  0.41846587    -0.81440
Co456      Co  0.06042185  0.85713201  0.36748741     1.51530
Co457      Co  0.07166954  0.92046958  0.42412475     1.51690
Co458      Co  0.03339696  0.88558319  0.38037499     1.51570
Co459      Co  0.12089549  0.88212310  0.38669908     1.51470
O460        O  0.07615719  0.88943272  0.39208607    -1.43330
C461        C  0.10267197  0.82012528  0.38541863     1.08220
C462        C  0.02340716  0.89163910  0.44399909     1.08310
C463        C  0.02329420  0.82195789  0.37265924     1.08240
C464        C  0.11848595  0.88621981  0.44910136     1.08220
O465        O  0.81664817  0.05453950  0.36481630    -0.81400
O466        O  0.90951960  0.09722271  0.43113087    -0.81420
O467        O  0.88199984  0.00216335  0.40430447    -0.81430
O468        O  0.83157786  0.12949328  0.37987985    -0.81370
O469        O  0.88576173  0.04128604  0.43188251    -0.81500
O470        O  0.82695714  0.10461917  0.33901474    -0.81410
O471        O  0.87232225  0.12728488  0.42396468    -0.81400
O472        O  0.83565412  0.03656200  0.40326755    -0.81440
C473        C  0.81430914  0.03873675  0.38676129     1.08290
C474        C  0.89127125  0.11595256  0.44038728     1.08180
C475        C  0.88287241  0.01328475  0.42965532     1.08310
C476        C  0.81653506  0.12136620  0.35839463     1.08190
O477        O  0.88602718  0.08608461  0.32661919    -0.81400
O478        O  0.93916802  0.04777618  0.40978149    -0.81480
O479        O  0.86004096  0.01995557  0.34665727    -0.81410
O480        O  0.91752390  0.13145976  0.38363428    -0.81390
O481        O  0.92596358  0.08793096  0.36955368    -0.81440
O482        O  0.84173987  0.05159770  0.31468337    -0.81410
O483        O  0.87659707  0.13121179  0.33693522    -0.81370
O484        O  0.91647895  0.03362830  0.37033631    -0.81440
Co485      Co  0.85276163  0.07073583  0.34756203     1.51530
Co486      Co  0.90426599  0.06711198  0.40000170     1.51690
Co487      Co  0.87485934  0.03875901  0.38621932     1.51570
Co488      Co  0.87423659  0.12735749  0.38119007     1.51470
O489        O  0.86883663  0.08274979  0.38302011    -1.43330
C490        C  0.88331465  0.11180361  0.31815237     1.08220
C491        C  0.93890964  0.03211696  0.38706193     1.08310
C492        C  0.84842607  0.02589638  0.32139699     1.08240
C493        C  0.93530187  0.11280728  0.37458330     1.08220
O494        O  0.83871157  0.81148750  0.55570135    -0.81400
O495        O  0.92647758  0.87346787  0.59241346    -0.81420
O496        O  0.92534121  0.87143465  0.53909303    -0.81430
O497        O  0.86852334  0.84316825  0.63665982    -0.81370
O498        O  0.93864918  0.91545779  0.55289463    -0.81500
O499        O  0.88026570  0.82647795  0.59470255    -0.81410
O500        O  0.91219551  0.88793343  0.63445808    -0.81400
O501        O  0.88213661  0.82678545  0.54254483    -0.81440
C502        C  0.86116665  0.80856477  0.53999690     1.08290
C503        C  0.93288311  0.87994746  0.61801634     1.08180
C504        C  0.94327417  0.89274534  0.53782630     1.08310
C505        C  0.87636531  0.82176456  0.62101012     1.08190
O506        O  0.82004838  0.84356801  0.60575394    -0.81400
O507        O  0.88363966  0.93683840  0.55254052    -0.81480
O508        O  0.84289090  0.86662454  0.51661668    -0.81410
O509        O  0.86569543  0.92952876  0.62271873    -0.81390
O510        O  0.90825313  0.93366585  0.60258150    -0.81440
O511        O  0.81556124  0.86657966  0.55363712    -0.81410
O512        O  0.82511322  0.88718546  0.62467133    -0.81370
O513        O  0.88112516  0.90876727  0.51564551    -0.81440
Co514      Co  0.84904763  0.84757801  0.57346323     1.51530
Co515      Co  0.90387613  0.90381404  0.57133672     1.51690
Co516      Co  0.88136977  0.87019586  0.53510364     1.51570
Co517      Co  0.86817278  0.88649230  0.62611110     1.51470
O518        O  0.86792125  0.88454593  0.58008516    -1.43330
C519        C  0.80957793  0.86521857  0.61944522     1.08220
C520        C  0.87981367  0.93402735  0.52592014     1.08310
C521        C  0.81799972  0.86870094  0.52667218     1.08240
C522        C  0.88714641  0.94491262  0.61601868     1.08220
O523        O  0.11896104  0.08096478  0.47889830    -0.81400
O524        O  0.12817913  0.16074633  0.48323137    -0.81420
O525        O  0.17317104  0.11589692  0.46811397    -0.81430
O526        O  0.05383813  0.14741376  0.44855770    -0.81370
O527        O  0.18503674  0.16204698  0.46557642    -0.81500
O528        O  0.07466296  0.11654836  0.47783617    -0.81410
O529        O  0.09728652  0.18609836  0.45724040    -0.81400
O530        O  0.15257128  0.06581943  0.44996080    -0.81440
C531        C  0.13917674  0.06353452  0.47376050     1.08290
C532        C  0.11049411  0.18179601  0.48119744     1.08180
C533        C  0.18923367  0.13714631  0.47628869     1.08310
C534        C  0.05393325  0.13289996  0.47177622     1.08190
O535        O  0.05894464  0.09907684  0.41947035    -0.81400
O536        O  0.17526252  0.14179597  0.41102772    -0.81480
O537        O  0.13888600  0.08658881  0.39312250    -0.81410
O538        O  0.11665300  0.17629575  0.39710347    -0.81390
O539        O  0.14555752  0.18890752  0.43178070    -0.81440
O540        O  0.10689881  0.06241126  0.41879738    -0.81410
O541        O  0.07461987  0.13451163  0.39151304    -0.81370
O542        O  0.19190188  0.09721859  0.41594326    -0.81440
Co543      Co  0.09142693  0.09172108  0.44812851     1.51530
Co544      Co  0.15010183  0.14897080  0.44802792     1.51690
Co545      Co  0.15387220  0.10470479  0.42901693     1.51570
Co546      Co  0.08787575  0.15887900  0.42370224     1.51470
O547        O  0.11573703  0.12572091  0.43541238    -1.43330
C548        C  0.05598962  0.11552240  0.39748274     1.08220
C549        C  0.19442046  0.12220768  0.40485056     1.08310
C550        C  0.12430466  0.06374632  0.39736158     1.08240
C551        C  0.13298438  0.19510723  0.40831650     1.08220
O552        O  0.63785105  0.06870152  0.30458185    -0.81400
O553        O  0.59522634  0.19252870  0.31044388    -0.81420
O554        O  0.55202602  0.09931879  0.31127502    -0.81430
O555        O  0.66008023  0.13237289  0.26877608    -0.81370
O556        O  0.56657416  0.14398591  0.30204277    -0.81500
O557        O  0.68414702  0.10389496  0.29800720    -0.81410
O558        O  0.61809843  0.17204031  0.27497929    -0.81400
O559        O  0.60376724  0.09441407  0.28310505    -0.81440
C560        C  0.61971579  0.07206390  0.28401743     1.08290
C561        C  0.60095849  0.19132659  0.28379451     1.08180
C562        C  0.54887237  0.12279020  0.29749522     1.08310
C563        C  0.68042670  0.11476497  0.27295843     1.08190
O564        O  0.67603348  0.12687536  0.35589476    -0.81400
O565        O  0.56418994  0.17177543  0.35355848    -0.81480
O566        O  0.59580054  0.07236095  0.33938556    -0.81410
O567        O  0.64642024  0.19477981  0.32759189    -0.81390
O568        O  0.62183198  0.17503462  0.36318044    -0.81440
O569        O  0.63172695  0.08779606  0.36489406    -0.81410
O570        O  0.68963144  0.15450929  0.31969294    -0.81370
O571        O  0.57324207  0.12493705  0.35980365    -0.81440
Co572      Co  0.65583530  0.09874292  0.33117897     1.51530
Co573      Co  0.59602453  0.15644460  0.33439745     1.51690
Co574      Co  0.59043187  0.11102622  0.31997856     1.51570
Co575      Co  0.65191581  0.16167350  0.29875238     1.51470
O576        O  0.62865768  0.13179466  0.32087691    -1.43330
C577        C  0.69523059  0.14151842  0.34333750     1.08220
C578        C  0.55877318  0.14822268  0.36630522     1.08310
C579        C  0.61343650  0.06808656  0.35981439     1.08240
C580        C  0.63592691  0.19637152  0.35320156     1.08220
O581        O  0.09212453  0.80424371  0.07262217    -0.81400
O582        O  0.13322223  0.79196961  0.18929786    -0.81420
O583        O  0.15930098  0.77382171  0.13505965    -0.81430
O584        O  0.08414546  0.77885546  0.15244800    -0.81370
O585        O  0.18183419  0.80416786  0.16265108    -0.81500
O586        O  0.05836705  0.80330144  0.12071916    -0.81410
O587        O  0.08975780  0.80137843  0.20686940    -0.81400
O588        O  0.11967932  0.77303135  0.09437107    -0.81440
C589        C  0.10387092  0.77942579  0.07345015     1.08290
C590        C  0.11293969  0.78662257  0.20739885     1.08180
C591        C  0.18119845  0.77978469  0.14986622     1.08310
C592        C  0.06224453  0.78090543  0.13630503     1.08190
O593        O  0.07585199  0.86422586  0.13265866    -0.81400
O594        O  0.16439438  0.86077486  0.14592958    -0.81480
O595        O  0.14124373  0.82797932  0.07032689    -0.81410
O596        O  0.11334228  0.85246375  0.19011044    -0.81390
O597        O  0.15831286  0.84354553  0.20294448    -0.81440
O598        O  0.11134771  0.86154819  0.08720923    -0.81410
O599        O  0.06061117  0.83510870  0.16569718    -0.81370
O600        O  0.18148523  0.82920854  0.11367507    -0.81440
Co601      Co  0.08639977  0.83319343  0.10533096     1.51530
Co602      Co  0.14547907  0.82854334  0.16644384     1.51690
Co603      Co  0.14885913  0.80163250  0.10485716     1.51570
Co604      Co  0.09985985  0.81482032  0.16917215     1.51470
O605        O  0.12028631  0.82113301  0.13121957    -1.43330
C606        C  0.05661329  0.85758083  0.15033067     1.08220
C607        C  0.18404440  0.85258073  0.12847767     1.08310
C608        C  0.12802229  0.85226471  0.06781239     1.08240
C609        C  0.13412985  0.85549964  0.20863070     1.08220
O610        O  0.07722052  0.61770333  0.28820761    -0.81400
O611        O  0.18818025  0.66857186  0.31284623    -0.81420
O612        O  0.11356283  0.66819061  0.28222434    -0.81430
O613        O  0.13506321  0.59503596  0.28037019    -0.81370
O614        O  0.13830797  0.69756043  0.31057702    -0.81500
O615        O  0.10739917  0.56914560  0.30663445    -0.81410
O616        O  0.17154957  0.63715150  0.28173620    -0.81400
O617        O  0.05742963  0.65967568  0.29845614    -0.81440
C618        C  0.05801345  0.63734134  0.28246997     1.08290
C619        C  0.18938644  0.65642176  0.28822915     1.08180
C620        C  0.12700982  0.69173022  0.28607597     1.08310
C621        C  0.12215230  0.57155719  0.28381037     1.08190
O622        O  0.11398367  0.59081842  0.36324221    -0.81400
O623        O  0.12435045  0.68012003  0.36949602    -0.81480
O624        O  0.07031659  0.63618807  0.35054813    -0.81410
O625        O  0.19541727  0.61917904  0.33750983    -0.81390
O626        O  0.17614285  0.64843433  0.37026885    -0.81440
O627        O  0.05985836  0.59151776  0.33785281    -0.81410
O628        O  0.15303969  0.57603369  0.33896514    -0.81370
O629        O  0.09198190  0.68893151  0.33650907    -0.81440
Co630      Co  0.09718660  0.60675452  0.32784509     1.51530
Co631      Co  0.15471830  0.67104290  0.34072084     1.51690
Co632      Co  0.09396630  0.65082810  0.31568171     1.51570
Co633      Co  0.16209108  0.60799500  0.31036372     1.51470
O634        O  0.13225077  0.63438946  0.32705543    -1.43330
C635        C  0.13478103  0.57320648  0.35965985     1.08220
C636        C  0.10479424  0.69645457  0.35969848     1.08310
C637        C  0.05221196  0.61499330  0.35037530     1.08240
C638        C  0.19738858  0.63349011  0.36127652     1.08220
O639        O  0.77639571  0.14870377  0.08535315    -0.81400
O640        O  0.77275866  0.11408579  0.16353258    -0.81420
O641        O  0.78400550  0.08264891  0.11841787    -0.81430
O642        O  0.77559673  0.17836938  0.15702134    -0.81370
O643        O  0.79781710  0.06176249  0.15886081    -0.81500
O644        O  0.79081768  0.19783395  0.11739620    -0.81410
O645        O  0.79273234  0.13877907  0.19682928    -0.81400
O646        O  0.79829188  0.10914456  0.07080769    -0.81440
C647        C  0.77619097  0.12541821  0.07065538     1.08290
C648        C  0.77215250  0.12326687  0.18906028     1.08180
C649        C  0.78064438  0.06254482  0.13734981     1.08310
C650        C  0.77105763  0.19402200  0.13518941     1.08190
O651        O  0.84870277  0.18982707  0.10723810    -0.81400
O652        O  0.84860656  0.07798778  0.13462852    -0.81480
O653        O  0.85898244  0.11554568  0.08696334    -0.81410
O654        O  0.85123572  0.14782518  0.18353155    -0.81390
O655        O  0.83328237  0.10379589  0.18783686    -0.81440
O656        O  0.83478317  0.14921541  0.06487718    -0.81410
O657        O  0.83576268  0.19587458  0.15276601    -0.81370
O658        O  0.83200943  0.06412010  0.09195472    -0.81440
Co659      Co  0.81300387  0.16826180  0.09668875     1.51530
Co660      Co  0.81161596  0.09965616  0.14889788     1.51690
Co661      Co  0.82236554  0.10181583  0.10604263     1.51570
Co662      Co  0.81440498  0.16315568  0.16885704     1.51470
O663        O  0.81881068  0.13898176  0.13054263    -1.43330
C664        C  0.84984638  0.20389831  0.13098294     1.08220
C665        C  0.84734120  0.05869599  0.11406505     1.08310
C666        C  0.85542298  0.13146871  0.06499612     1.08240
C667        C  0.84970426  0.12424320  0.19732715     1.08220
O668        O  0.76386105  0.59645215  0.63184706    -0.81400
O669        O  0.76835064  0.67143206  0.63703911    -0.81420
O670        O  0.78449921  0.62416744  0.68576911    -0.81430
O671        O  0.79542033  0.65707793  0.56299708    -0.81370
O672        O  0.78451237  0.67148963  0.69385256    -0.81500
O673        O  0.76394871  0.63351674  0.58839087    -0.81410
O674        O  0.79555452  0.69598458  0.60663975    -0.81400
O675        O  0.79547888  0.57518961  0.65899567    -0.81440
C676        C  0.77054401  0.57570175  0.64792835     1.08290
C677        C  0.77155964  0.69221386  0.61938253     1.08180
C678        C  0.77501616  0.64650173  0.70005585     1.08310
C679        C  0.76993306  0.64742511  0.56603916     1.08190
O680        O  0.81680067  0.60748202  0.56503727    -0.81400
O681        O  0.83742170  0.64607845  0.68633688    -0.81480
O682        O  0.85078522  0.58945895  0.63817003    -0.81410
O683        O  0.85411669  0.68154572  0.62246229    -0.81390
O684        O  0.82226808  0.69563369  0.65434543    -0.81440
O685        O  0.81735646  0.57028998  0.60992982    -0.81410
O686        O  0.85206637  0.63683337  0.57857911    -0.81370
O687        O  0.83573381  0.59859539  0.69520600    -0.81440
Co688      Co  0.79112240  0.60381171  0.60024055     1.51530
Co689      Co  0.80180924  0.65717492  0.65928332     1.51690
Co690      Co  0.82024400  0.61090005  0.65996632     1.51570
Co691      Co  0.82453354  0.66557431  0.59497170     1.51470
O692        O  0.81174338  0.63400789  0.62409507    -1.43330
C693        C  0.84171501  0.61841094  0.56065937     1.08220
C694        C  0.84358903  0.62393176  0.70274842     1.08310
C695        C  0.84144227  0.56805521  0.62310228     1.08240
C696        C  0.84513364  0.70093485  0.64010518     1.08220
O697        O  0.16257836  0.06433942  0.80327136    -0.81400
O698        O  0.12353664  0.17137590  0.77672868    -0.81420
O699        O  0.06610608  0.10015157  0.80699075    -0.81430
O700        O  0.18763702  0.14994175  0.80836855    -0.81370
O701        O  0.08690216  0.12773524  0.77648840    -0.81500
O702        O  0.16174642  0.11942088  0.78280816    -0.81410
O703        O  0.14962644  0.19559348  0.80795555    -0.81400
O704        O  0.11782906  0.07667220  0.79298577    -0.81440
C705        C  0.14075100  0.06138066  0.78730386     1.08290
C706        C  0.13930297  0.19261076  0.78274629     1.08180
C707        C  0.06637225  0.11117206  0.78238525     1.08310
C708        C  0.18412545  0.13483560  0.78539634     1.08190
O709        O  0.18390381  0.10403669  0.83797248    -0.81400
O710        O  0.06116582  0.14849862  0.83205005    -0.81480
O711        O  0.08914165  0.06247372  0.84156629    -0.81410
O712        O  0.13029298  0.18311052  0.86457536    -0.81390
O713        O  0.09875923  0.19475257  0.83020647    -0.81440
O714        O  0.13377434  0.07451448  0.85290489    -0.81410
O715        O  0.17144435  0.13832085  0.86818163    -0.81370
O716        O  0.08037765  0.11702295  0.86281857    -0.81440
Co717      Co  0.14671334  0.09954768  0.81734387     1.51530
Co718      Co  0.09431630  0.15920897  0.80465753     1.51690
Co719      Co  0.10213004  0.09876784  0.83030927     1.51570
Co720      Co  0.15743024  0.16441938  0.83720263     1.51470
O721        O  0.12451460  0.13591811  0.82542397    -1.43330
C722        C  0.18920852  0.11903584  0.86021850     1.08220
C723        C  0.05947952  0.13344591  0.85531397     1.08310
C724        C  0.11260328  0.05604952  0.85365764     1.08240
C725        C  0.11084332  0.19986779  0.85461874     1.08220
O726        O  0.59201119  0.30194885  0.07483846    -0.81400
O727        O  0.61529443  0.28229415  0.18810875    -0.81420
O728        O  0.67840607  0.29285585  0.10231728    -0.81430
O729        O  0.57970203  0.28158139  0.14727376    -0.81370
O730        O  0.65726163  0.27735579  0.14253524    -0.81500
O731        O  0.55125759  0.30358289  0.11736588    -0.81410
O732        O  0.57458724  0.30407853  0.20172390    -0.81400
O733        O  0.62186824  0.27908943  0.10249555    -0.81440
C734        C  0.60642825  0.27945434  0.08022165     1.08290
C735        C  0.59280771  0.28382758  0.20468118     1.08180
C736        C  0.67797186  0.27563689  0.12394305     1.08310
C737        C  0.55704641  0.28139505  0.13248911     1.08190
O738        O  0.56310746  0.36581978  0.12473907    -0.81400
O739        O  0.67915209  0.33326675  0.15937109    -0.81480
O740        O  0.63858157  0.33136209  0.07120852    -0.81410
O741        O  0.59588808  0.35654722  0.18581927    -0.81390
O742        O  0.63677336  0.33977396  0.19987844    -0.81440
O743        O  0.60425233  0.36229293  0.08321295    -0.81410
O744        O  0.54958920  0.33698442  0.15925206    -0.81370
O745        O  0.66965052  0.34942572  0.11703283    -0.81440
Co746      Co  0.58024052  0.33340342  0.10267985     1.51530
Co747      Co  0.64281872  0.31099128  0.16768601     1.51690
Co748      Co  0.64460441  0.31466088  0.11157132     1.51570
Co749      Co  0.58906734  0.31936218  0.16651204     1.51470
O750        O  0.61306165  0.33071486  0.13446054    -1.43330
C751        C  0.54475450  0.35889769  0.14340022     1.08220
C752        C  0.68685510  0.34830203  0.13812710     1.08310
C753        C  0.62255442  0.35317854  0.06516175     1.08240
C754        C  0.61591527  0.35685390  0.20394189     1.08220
O755        O  0.09806697  0.26878082  0.63416392    -0.81400
O756        O  0.17143620  0.28035073  0.62961584    -0.81420
O757        O  0.10450887  0.30167892  0.56264419    -0.81430
O758        O  0.14129630  0.29316430  0.68466828    -0.81370
O759        O  0.13600101  0.27395808  0.58439738    -0.81500
O760        O  0.09485159  0.28398680  0.69194091    -0.81410
O761        O  0.18621743  0.31401974  0.65937226    -0.81400
O762        O  0.06848365  0.29406907  0.60660213    -0.81440
C763        C  0.07665403  0.26993033  0.61677257     1.08290
C764        C  0.18950711  0.28939791  0.64776111     1.08180
C765        C  0.11756181  0.27736579  0.56460744     1.08310
C766        C  0.12101911  0.27991384  0.69845133     1.08190
O767        O  0.11008367  0.34001156  0.68718157    -0.81400
O768        O  0.14927838  0.33224354  0.56583823    -0.81480
O769        O  0.07384961  0.35329496  0.62573007    -0.81410
O770        O  0.16163886  0.36727687  0.64123931    -0.81390
O771        O  0.18620376  0.33891653  0.61110363    -0.81440
O772        O  0.06707909  0.31697694  0.65506469    -0.81410
O773        O  0.15612078  0.34792218  0.69763616    -0.81370
O774        O  0.11408064  0.36118673  0.58116734    -0.81440
Co775      Co  0.10685607  0.30360484  0.65840732     1.51530
Co776      Co  0.15902967  0.30662239  0.59920388     1.51690
Co777      Co  0.09249319  0.32816556  0.59620966     1.51570
Co778      Co  0.14694237  0.33201115  0.66090668     1.51470
O779        O  0.12636561  0.31989586  0.62409965    -1.43330
C780        C  0.12973759  0.34979698  0.70496188     1.08220
C781        C  0.13348893  0.35477713  0.56301643     1.08310
C782        C  0.05791692  0.33967946  0.64327188     1.08240
C783        C  0.18379390  0.36258435  0.62553041     1.08220
O784        O  0.13861474  0.48605287  0.09576886    -0.81400
O785        O  0.12644560  0.49432792  0.16912278    -0.81420
O786        O  0.05988377  0.46524190  0.10556598    -0.81430
O787        O  0.17889021  0.47327043  0.14322523    -0.81370
O788        O  0.08388296  0.49634961  0.13176737    -0.81500
O789        O  0.19289372  0.46314249  0.09879533    -0.81410
O790        O  0.15094446  0.46325885  0.19312950    -0.81400
O791        O  0.10641369  0.46150303  0.07012025    -0.81440
C792        C  0.12287341  0.48350398  0.07355064     1.08290
C793        C  0.14068300  0.48860831  0.19128655     1.08180
C794        C  0.06265197  0.49065020  0.11587056     1.08310
C795        C  0.19612315  0.47794255  0.12178847     1.08190
O796        O  0.17720467  0.41304538  0.12474503    -0.81400
O797        O  0.05798935  0.44522733  0.15656271    -0.81480
O798        O  0.11611294  0.40178932  0.08886967    -0.81410
O799        O  0.13045037  0.40732247  0.17519591    -0.81390
O800        O  0.10199613  0.44055506  0.19504960    -0.81440
O801        O  0.15064498  0.42953903  0.07380124    -0.81410
O802        O  0.18848057  0.42209780  0.17042417    -0.81370
O803        O  0.06933204  0.40841964  0.12792099    -0.81440
Co804      Co  0.15571151  0.45074944  0.11162912     1.51530
Co805      Co  0.09411002  0.46831938  0.16156355     1.51690
Co806      Co  0.09000439  0.43405217  0.10016673     1.51570
Co807      Co  0.15331953  0.43820946  0.15672990     1.51470
O808        O  0.11795966  0.44622155  0.13263742    -1.43330
C809        C  0.19384081  0.40888572  0.14689775     1.08220
C810        C  0.05215078  0.42042265  0.14596726     1.08310
C811        C  0.13424763  0.40792854  0.06943940     1.08240
C812        C  0.11518907  0.41610432  0.19640416     1.08220
O813        O  0.43320671  0.37519826  0.21777151    -0.81400
O814        O  0.30247408  0.40770393  0.20954911    -0.81420
O815        O  0.37537035  0.41890979  0.24775414    -0.81430
O816        O  0.37020131  0.34988942  0.25116262    -0.81370
O817        O  0.34588627  0.44464730  0.22049595    -0.81500
O818        O  0.39925852  0.32788932  0.22117147    -0.81410
O819        O  0.32664199  0.38813709  0.24415582    -0.81400
O820        O  0.43226795  0.42126584  0.23435134    -0.81440
C821        C  0.44403320  0.39614708  0.23383928     1.08290
C822        C  0.30343420  0.39842223  0.23507575     1.08180
C823        C  0.35752996  0.43956791  0.24517538     1.08310
C824        C  0.38798480  0.32975235  0.24597317     1.08190
O825        O  0.37601443  0.33292500  0.16376186    -0.81400
O826        O  0.36904983  0.43381396  0.16217429    -0.81480
O827        O  0.42725686  0.41195777  0.18000729    -0.81410
O828        O  0.31017752  0.35915556  0.18936924    -0.81390
O829        O  0.32577642  0.38980344  0.15595812    -0.81440
O830        O  0.40982834  0.37835762  0.15405586    -0.81410
O831        O  0.35049375  0.31928592  0.20062184    -0.81370
O832        O  0.39303090  0.45209538  0.19820162    -0.81440
Co833      Co  0.40188460  0.35642848  0.18894685     1.51530
Co834      Co  0.33837476  0.41694034  0.18658205     1.51690
Co835      Co  0.39925671  0.41141788  0.21391986     1.51570
Co836      Co  0.34136877  0.35657193  0.22039342     1.51470
O837        O  0.36797554  0.38508597  0.19911049    -1.43330
C838        C  0.36149881  0.31353341  0.17638384     1.08220
C839        C  0.38059891  0.45582715  0.17390698     1.08310
C840        C  0.42933886  0.39625203  0.15793530     1.08240
C841        C  0.30712625  0.37149406  0.16464538     1.08220
O842        O  0.66190100  0.62222820  0.47925082    -0.81400
O843        O  0.56147603  0.66502197  0.47099279    -0.81420
O844        O  0.64518993  0.69467070  0.45413693    -0.81430
O845        O  0.62489153  0.57892202  0.48100178    -0.81370
O846        O  0.61851765  0.66779924  0.48150211    -0.81500
O847        O  0.66679930  0.56611610  0.46114319    -0.81410
O848        O  0.58366385  0.62498814  0.48611639    -0.81400
O849        O  0.68595479  0.65339405  0.45346996    -0.81440
C850        C  0.68230518  0.64013038  0.47708615     1.08290
C851        C  0.56323383  0.64397421  0.48886220     1.08180
C852        C  0.63238659  0.69094686  0.47791879     1.08310
C853        C  0.64724802  0.56206917  0.47981337     1.08190
O854        O  0.64537662  0.57744061  0.40839588    -0.81400
O855        O  0.59746095  0.69518784  0.42881609    -0.81480
O856        O  0.67276961  0.63869216  0.39398035    -0.81410
O857        O  0.55995364  0.60630474  0.43047208    -0.81390
O858        O  0.56891806  0.64877923  0.41391781    -0.81440
O859        O  0.68976659  0.60752434  0.42502920    -0.81410
O860        O  0.60252601  0.56701922  0.42346286    -0.81370
O861        O  0.62804278  0.68005731  0.39592769    -0.81440
Co862      Co  0.65146475  0.60015575  0.44383919     1.51530
Co863      Co  0.59438540  0.65559907  0.44779219     1.51690
Co864      Co  0.65583893  0.66420066  0.42425273     1.51570
Co865      Co  0.59671449  0.59892180  0.45240607     1.51470
O866        O  0.62545976  0.63146462  0.43149377    -1.43330
C867        C  0.62393455  0.56112754  0.40771262     1.08220
C868        C  0.61211657  0.70008953  0.40598335     1.08310
C869        C  0.69338654  0.62285913  0.40264494     1.08240
C870        C  0.55266375  0.62721590  0.41473794     1.08220
O871        O  0.54502337  0.31913678  0.36573263    -0.81400
O872        O  0.52109210  0.42936253  0.40311011    -0.81420
O873        O  0.55284824  0.35119337  0.45547217    -0.81430
O874        O  0.53120728  0.40177260  0.34381409    -0.81370
O875        O  0.52368694  0.38548033  0.44066684    -0.81500
O876        O  0.54594419  0.36128867  0.32619715    -0.81410
O877        O  0.54877197  0.44747223  0.37000452    -0.81400
O878        O  0.53582287  0.33128764  0.40947172    -0.81440
C879        C  0.52931765  0.31674236  0.38778031     1.08290
C880        C  0.52741608  0.45017869  0.38698498     1.08180
C881        C  0.53025129  0.36640799  0.45905170     1.08310
C882        C  0.52909206  0.38254480  0.32480262     1.08190
O883        O  0.60331222  0.37988536  0.34020107    -0.81400
O884        O  0.58157996  0.39998190  0.45511503    -0.81480
O885        O  0.58973169  0.31106588  0.42304761    -0.81410
O886        O  0.60555397  0.42211799  0.38015121    -0.81390
O887        O  0.58097765  0.44373578  0.41437302    -0.81440
O888        O  0.60473141  0.33306122  0.38383309    -0.81410
O889        O  0.58353338  0.42149017  0.32590589    -0.81370
O890        O  0.60870445  0.36738235  0.43365905    -0.81440
Co891      Co  0.57360087  0.35148457  0.35799922     1.51530
Co892      Co  0.55244928  0.41246154  0.42590399     1.51690
Co893      Co  0.57308447  0.34915549  0.41709081     1.51570
Co894      Co  0.56899086  0.40910977  0.36207893     1.51470
O895        O  0.55969552  0.38240107  0.39333566    -1.43330
C896        C  0.59865099  0.39902889  0.32008912     1.08220
C897        C  0.60342558  0.38348283  0.45547612     1.08310
C898        C  0.60324387  0.30957639  0.39895371     1.08240
C899        C  0.60191836  0.44376398  0.39657908     1.08220
O900        O  0.26937431  0.09339544  0.62911531    -0.81400
O901        O  0.28335958  0.19197314  0.68300716    -0.81420
O902        O  0.29581453  0.10774422  0.70044187    -0.81430
O903        O  0.26604840  0.13605480  0.59437423    -0.81370
O904        O  0.26916364  0.13585006  0.67432227    -0.81500
O905        O  0.28461591  0.09792652  0.57197702    -0.81410
O906        O  0.26512284  0.17772261  0.64071697    -0.81400
O907        O  0.29673335  0.06757123  0.65758339    -0.81440
C908        C  0.27291264  0.07116964  0.64471779     1.08290
C909        C  0.26620022  0.19604162  0.66205998     1.08180
C910        C  0.27176407  0.12030860  0.69623105     1.08310
C911        C  0.26747149  0.11958185  0.57180299     1.08190
O912        O  0.33840782  0.11677656  0.58435346    -0.81400
O913        O  0.32287975  0.15315947  0.70404196    -0.81480
O914        O  0.35515195  0.08144543  0.64241831    -0.81410
O915        O  0.31956954  0.19865346  0.62035809    -0.81390
O916        O  0.33691697  0.18651330  0.66177065    -0.81440
O917        O  0.32318512  0.06955489  0.60952408    -0.81410
O918        O  0.32188681  0.15984370  0.57737389    -0.81370
O919        O  0.35501899  0.12443803  0.68479952    -0.81440
Co920      Co  0.30365039  0.10795664  0.60719084     1.51530
Co921      Co  0.30314506  0.16054331  0.66619044     1.51690
Co922      Co  0.32562189  0.09786073  0.66920563     1.51570
Co923      Co  0.29578136  0.16389976  0.61157912     1.51470
O924        O  0.31791146  0.13123559  0.63957056    -1.43330
C925        C  0.33892325  0.13979114  0.57026040     1.08220
C926        C  0.34654076  0.13948347  0.70595982     1.08310
C927        C  0.34639034  0.06389847  0.62307024     1.08240
C928        C  0.33531859  0.20449241  0.64167316     1.08220
O929        O  0.29274651  0.66727734  0.06590906    -0.81400
O930        O  0.26767160  0.64348277  0.17811740    -0.81420
O931        O  0.29831187  0.57596764  0.11440648    -0.81430
O932        O  0.29984228  0.70298130  0.15095420    -0.81370
O933        O  0.26653020  0.59852737  0.14055067    -0.81500
O934        O  0.27336027  0.67688073  0.12083896    -0.81410
O935        O  0.29954071  0.67089126  0.19952064    -0.81400
O936        O  0.28599608  0.62308926  0.08343954    -0.81440
C937        C  0.27901845  0.64347325  0.06551560     1.08290
C938        C  0.27457849  0.65967662  0.19887184     1.08180
C939        C  0.27339896  0.57683513  0.12529141     1.08310
C940        C  0.27647763  0.69900000  0.13708506     1.08190
O941        O  0.32921604  0.69651052  0.10424285    -0.81400
O942        O  0.32172238  0.57807503  0.16381230    -0.81480
O943        O  0.33631999  0.59381857  0.07494361    -0.81410
O944        O  0.35627835  0.64859194  0.18650806    -0.81390
O945        O  0.32124393  0.62114865  0.20383352    -0.81440
O946        O  0.34393489  0.64113781  0.08014008    -0.81410
O947        O  0.35877540  0.68387397  0.13841361    -0.81370
O948        O  0.35391240  0.59301723  0.13178247    -0.81440
Co949      Co  0.30774249  0.65791567  0.10311811     1.51530
Co950      Co  0.29491188  0.61213383  0.16974002     1.51690
Co951      Co  0.32230794  0.61154263  0.10887606     1.51570
Co952      Co  0.32853893  0.67418781  0.16681474     1.51470
O953        O  0.31492134  0.63920777  0.14194859    -1.43330
C954        C  0.35115874  0.70227279  0.11984454     1.08220
C955        C  0.34554569  0.57441041  0.15032314     1.08310
C956        C  0.34836882  0.61676176  0.06619418     1.08240
C957        C  0.34629421  0.63240923  0.20606664     1.08220
O958        O  0.45065447  0.12228405  0.07109880    -0.81400
O959        O  0.44623025  0.16069043  0.20797220    -0.81420
O960        O  0.44676435  0.20008342  0.13328918    -0.81430
O961        O  0.44660133  0.07187375  0.15693366    -0.81370
O962        O  0.47050894  0.16748934  0.15529209    -0.81500
O963        O  0.46524596  0.08830801  0.11685252    -0.81410
O964        O  0.46188803  0.12083350  0.18653566    -0.81400
O965        O  0.46494600  0.16256370  0.09136182    -0.81440
C966        C  0.46937176  0.14152856  0.07435342     1.08290
C967        C  0.46390927  0.13965059  0.20741528     1.08180
C968        C  0.46946562  0.19293364  0.14572575     1.08310
C969        C  0.46600300  0.07069647  0.13763084     1.08190
O970        O  0.40706082  0.06820844  0.11748103    -0.81400
O971        O  0.40878362  0.18757825  0.16820434    -0.81480
O972        O  0.40575808  0.15706253  0.07401787    -0.81410
O973        O  0.41604765  0.09170508  0.20456177    -0.81390
O974        O  0.39731015  0.13416414  0.19324209    -0.81440
O975        O  0.39235877  0.11182660  0.07921890    -0.81410
O976        O  0.38605309  0.08848013  0.15445810    -0.81370
O977        O  0.38907197  0.18321652  0.12483812    -0.81440
Co978      Co  0.42852491  0.10046335  0.09944833     1.51530
Co979      Co  0.43264429  0.15035409  0.17039227     1.51690
Co980      Co  0.42614798  0.17192067  0.10806772     1.51570
Co981      Co  0.42335885  0.10733058  0.16729537     1.51470
O982        O  0.42442195  0.13281034  0.13074616    -1.43330
C983        C  0.38778539  0.06764821  0.13654110     1.08220
C984        C  0.39081331  0.19617942  0.14891348     1.08310
C985        C  0.39261573  0.13510497  0.06471129     1.08240
C986        C  0.40049765  0.11326785  0.21173282     1.08220
O987        O  0.33447133  0.23742745  0.37730539    -0.81400
O988        O  0.43163291  0.22119586  0.42569407    -0.81420
O989        O  0.34463648  0.20980851  0.44918414    -0.81430
O990        O  0.39309679  0.21675468  0.33090159    -0.81370
O991        O  0.37449740  0.23516250  0.42332653    -0.81500
O992        O  0.34566034  0.22489008  0.32082378    -0.81410
O993        O  0.41533751  0.23190955  0.38253367    -0.81400
O994        O  0.30663720  0.20995372  0.40399718    -0.81440
C995        C  0.31111262  0.23374254  0.39095018     1.08290
C996        C  0.43345386  0.23673922  0.40323536     1.08180
C997        C  0.35851562  0.23314145  0.44524737     1.08310
C998        C  0.37255719  0.22965582  0.31637590     1.08190
O999        O  0.35751744  0.17050551  0.32823915    -0.81400
O1000       O  0.39301866  0.18163967  0.44922003    -0.81480
O1001       O  0.31980173  0.15174036  0.38978399    -0.81410
O1002       O  0.44272899  0.18630508  0.35928508    -0.81390
O1003       O  0.42601546  0.16843941  0.40066353    -0.81440
O1004       O  0.30954831  0.18376622  0.35525429    -0.81410
O1005       O  0.39651803  0.15366554  0.34743883    -0.81370
O1006       O  0.35909835  0.15041569  0.43714502    -0.81440
Co1007     Co  0.34866199  0.20358821  0.35492199     1.51530
Co1008     Co  0.39821019  0.20152210  0.41127154     1.51690
Co1009     Co  0.33416643  0.18005434  0.41854152     1.51570
Co1010     Co  0.40282692  0.19138442  0.36735327     1.51470
O1011       O  0.36516274  0.18699818  0.38887360    -1.43330
C1012       C  0.37824596  0.15288636  0.32732780     1.08220
C1013       C  0.37743001  0.15984352  0.45538598     1.08310
C1014       C  0.30349117  0.16057446  0.36938774     1.08240
C1015       C  0.44657704  0.17105806  0.38206737     1.08220
O1016       O  0.56020347  0.80390072  0.64873908    -0.81400
O1017       O  0.68279350  0.80257886  0.60283448    -0.81420
O1018       O  0.58904063  0.80026445  0.56106210    -0.81430
O1019       O  0.62040563  0.77036884  0.67138381    -0.81370
O1020       O  0.63448309  0.79492231  0.57403751    -0.81500
O1021       O  0.59604001  0.80269243  0.69551913    -0.81410
O1022       O  0.65762258  0.77209179  0.62740166    -0.81400
O1023       O  0.58470682  0.77855956  0.61617621    -0.81440
C1024       C  0.56286229  0.78139322  0.63249650     1.08290
C1025       C  0.68033259  0.77757889  0.61389653     1.08180
C1026       C  0.61329776  0.78808607  0.55705760     1.08310
C1027       C  0.60579436  0.77703219  0.69328113     1.08190
O1028       O  0.61919864  0.85850274  0.68185761    -0.81400
O1029       O  0.66100919  0.84635848  0.56637864    -0.81480
O1030       O  0.56301281  0.83464098  0.60340069    -0.81410
O1031       O  0.68457204  0.82383690  0.65287909    -0.81390
O1032       O  0.66885470  0.85880398  0.62451387    -0.81440
O1033       O  0.57865449  0.86352183  0.63691903    -0.81410
O1034       O  0.64675146  0.82229489  0.69691607    -0.81370
O1035       O  0.61432416  0.85130367  0.57668226    -0.81440
Co1036     Co  0.59045937  0.83237035  0.66377345     1.51530
Co1037     Co  0.64780205  0.82924275  0.60117022     1.51690
Co1038     Co  0.60116253  0.81367939  0.59848052     1.51570
Co1039     Co  0.65077376  0.79771624  0.66053950     1.51470
O1040       O  0.62266127  0.81979569  0.63591055    -1.43330
C1041       C  0.63542183  0.84726886  0.70103714     1.08220
C1042       C  0.63621703  0.85648466  0.55993061     1.08310
C1043       C  0.55845483  0.85621364  0.62000005     1.08240
C1044       C  0.68855112  0.84826542  0.64068455     1.08220
O1045       O  0.19543426  0.31206549  0.40903945    -0.81400
O1046       O  0.22995198  0.42077501  0.38442257    -0.81420
O1047       O  0.19687066  0.35757593  0.31700963    -0.81430
O1048       O  0.19722397  0.39779150  0.44233101    -0.81370
O1049       O  0.22628892  0.38061338  0.34462919    -0.81500
O1050       O  0.22089994  0.36488885  0.41660530    -0.81410
O1051       O  0.19972035  0.44576567  0.41035203    -0.81400
O1052       O  0.20738446  0.32792342  0.36603472    -0.81440
C1053       C  0.21136386  0.30993855  0.38707761     1.08290
C1054       C  0.22481952  0.44235590  0.39991003     1.08180
C1055       C  0.22117497  0.36931391  0.32052079     1.08310
C1056       C  0.21883344  0.38098784  0.43888971     1.08190
O1057       O  0.16513182  0.35238327  0.43615471    -0.81400
O1058       O  0.17479094  0.40882079  0.32097519    -0.81480
O1059       O  0.15659055  0.31705110  0.33863631    -0.81410
O1060       O  0.14202891  0.43564725  0.38929417    -0.81390
O1061       O  0.17814976  0.45056055  0.36191790    -0.81440
O1062       O  0.14708906  0.33224124  0.38282813    -0.81410
O1063       O  0.13713846  0.38848568  0.42572012    -0.81370
O1064       O  0.14154048  0.37625683  0.33141294    -0.81440
Co1065     Co  0.18491747  0.35017788  0.39832918     1.51530
Co1066     Co  0.20179708  0.41385587  0.35408137     1.51690
Co1067     Co  0.17194751  0.35357170  0.35237412     1.51570
Co1068     Co  0.16872372  0.41492069  0.41468502     1.51470
O1069       O  0.17924824  0.38859029  0.37981035    -1.43330
C1070       C  0.14482601  0.36916487  0.44330155     1.08220
C1071       C  0.15156218  0.39568120  0.31451814     1.08310
C1072       C  0.14598035  0.31182501  0.36354329     1.08240
C1073       C  0.15390905  0.45524609  0.37458375     1.08220
O1074       O  0.57747875  0.62808641  0.78587172    -0.81400
O1075       O  0.65603059  0.64677318  0.78020527    -0.81420
O1076       O  0.60475706  0.68485288  0.80138997    -0.81430
O1077       O  0.65182080  0.56818023  0.80845949    -0.81370
O1078       O  0.64930939  0.70195105  0.80162891    -0.81500
O1079       O  0.61933580  0.58792152  0.78022250    -0.81410
O1080       O  0.68437861  0.61691993  0.80418349    -0.81400
O1081       O  0.55973699  0.65628982  0.81944403    -0.81440
C1082       C  0.55729532  0.64385251  0.79526027     1.08290
C1083       C  0.67951189  0.63257779  0.78188995     1.08180
C1084       C  0.62375062  0.70288662  0.79185588     1.08310
C1085       C  0.63903260  0.56954690  0.78420786     1.08190
O1086       O  0.60433808  0.56358283  0.83671707    -0.81400
O1087       O  0.63287453  0.68591262  0.85554175    -0.81480
O1088       O  0.58113283  0.63795872  0.87206835    -0.81410
O1089       O  0.67081121  0.63117803  0.86471747    -0.81390
O1090       O  0.68264104  0.66343843  0.83317657    -0.81440
O1091       O  0.56196145  0.60569610  0.84233506    -0.81410
O1092       O  0.63648060  0.58134307  0.86720207    -0.81370
O1093       O  0.58602373  0.69546033  0.85581434    -0.81440
Co1094     Co  0.59272585  0.59801472  0.81177225     1.51530
Co1095     Co  0.64196016  0.66427668  0.81697021     1.51690
Co1096     Co  0.59791825  0.66000757  0.83891620     1.51570
Co1097     Co  0.65862407  0.60119108  0.83647330     1.51470
O1098       O  0.62293869  0.62584289  0.82706739    -1.43330
C1099       C  0.61928861  0.56115928  0.85993091     1.08220
C1100       C  0.61167362  0.70272161  0.86259682     1.08310
C1101       C  0.56006279  0.62121770  0.86533886     1.08240
C1102       C  0.68963842  0.64815651  0.85477193     1.08220
O1103       O  0.29924010  0.35321238  0.55064894    -0.81400
O1104       O  0.41330634  0.37775885  0.52602024    -0.81420
O1105       O  0.34696810  0.44508753  0.55200406    -0.81430
O1106       O  0.38266531  0.31943962  0.55444584    -0.81370
O1107       O  0.37266451  0.41803099  0.52437939    -0.81500
O1108       O  0.35357964  0.34746619  0.52922670    -0.81410
O1109       O  0.43277382  0.34969171  0.55807775    -0.81400
O1110       O  0.31683237  0.39626303  0.54002007    -0.81440
C1111       C  0.29827344  0.37592100  0.53539493     1.08290
C1112       C  0.43397145  0.36219809  0.53403148     1.08180
C1113       C  0.36075244  0.44207753  0.52849188     1.08310
C1114       C  0.36838941  0.32463570  0.53139918     1.08190
O1115       O  0.33812861  0.32445175  0.58494747    -0.81400
O1116       O  0.39428183  0.44272446  0.57921142    -0.81480
O1117       O  0.30348949  0.42432901  0.58981794    -0.81410
O1118       O  0.42044117  0.37096408  0.61357765    -0.81390
O1119       O  0.43620768  0.40121954  0.57987491    -0.81440
O1120       O  0.31415046  0.37896844  0.60116604    -0.81410
O1121       O  0.37101160  0.33827952  0.61516960    -0.81370
O1122       O  0.35973594  0.42869308  0.60938253    -0.81440
Co1123     Co  0.33636239  0.36367903  0.56478818     1.51530
Co1124     Co  0.40247641  0.40865508  0.55280046     1.51690
Co1125     Co  0.33983508  0.40935499  0.57684191     1.51570
Co1126     Co  0.39943289  0.34680092  0.58517250     1.51470
O1127       O  0.37491767  0.38226775  0.57265270    -1.43330
C1128       C  0.35318550  0.31947217  0.60736854     1.08220
C1129       C  0.37924064  0.44658446  0.60212207     1.08310
C1130       C  0.29675534  0.40112021  0.60298562     1.08240
C1131       C  0.43960460  0.38791734  0.60382335     1.08220
O1132       O  0.44804855  0.69429217  0.61642392    -0.81400
O1133       O  0.45857740  0.57486796  0.66892726    -0.81420
O1134       O  0.47628335  0.63956217  0.69035257    -0.81430
O1135       O  0.46574616  0.59856446  0.58107407    -0.81370
O1136       O  0.44678991  0.61215247  0.71365015    -0.81500
O1137       O  0.46730005  0.64491104  0.59222358    -0.81410
O1138       O  0.48232492  0.60226602  0.63794629    -0.81400
O1139       O  0.47740114  0.67621836  0.64780356    -0.81440
C1140       C  0.47139370  0.69614681  0.63065982     1.08290
C1141       C  0.48188902  0.58128807  0.65559540     1.08180
C1142       C  0.46946886  0.62723077  0.71331258     1.08310
C1143       C  0.47622262  0.62332715  0.57655236     1.08190
O1144       O  0.41578684  0.66508148  0.57515715    -0.81400
O1145       O  0.39040444  0.62290842  0.69239261    -0.81480
O1146       O  0.41787191  0.69498858  0.66174006    -0.81410
O1147       O  0.43329283  0.57082740  0.61964811    -0.81390
O1148       O  0.39817629  0.58048116  0.64930110    -0.81440
O1149       O  0.39190799  0.67145015  0.62892423    -0.81410
O1150       O  0.41138415  0.61889144  0.58802880    -0.81370
O1151       O  0.41875245  0.65887619  0.70705646    -0.81440
Co1152     Co  0.42794846  0.65510511  0.61267462     1.51530
Co1153     Co  0.42345760  0.59963963  0.67857791     1.51690
Co1154     Co  0.44734763  0.66577301  0.67527368     1.51570
Co1155     Co  0.44734307  0.61167641  0.61534366     1.51470
O1156       O  0.43357608  0.63315651  0.65030032    -1.43330
C1157       C  0.40707000  0.63959206  0.56936222     1.08220
C1158       C  0.39653686  0.64298839  0.71029116     1.08310
C1159       C  0.39543831  0.69299902  0.64578997     1.08240
C1160       C  0.41060419  0.56281579  0.63242949     1.08220
O1161       O  0.69894814  0.45826366  0.66572782    -0.81400
O1162       O  0.59144599  0.49491576  0.63242585    -0.81420
O1163       O  0.65592502  0.45479110  0.57287444    -0.81430
O1164       O  0.61530327  0.46665714  0.69724976    -0.81370
O1165       O  0.63034836  0.48867239  0.59249343    -0.81500
O1166       O  0.64715293  0.48690534  0.66832062    -0.81410
O1167       O  0.56763142  0.46947603  0.66364800    -0.81400
O1168       O  0.68374279  0.46961313  0.62208797    -0.81440
C1169       C  0.70120118  0.47367115  0.64351109     1.08290
C1170       C  0.57107656  0.49297208  0.64987566     1.08180
C1171       C  0.64678781  0.48048272  0.57255147     1.08310
C1172       C  0.63252204  0.48724401  0.69145271     1.08190
O1173       O  0.65791191  0.43263684  0.69297443    -0.81400
O1174       O  0.60502392  0.43248018  0.57395039    -0.81480
O1175       O  0.69308383  0.41698358  0.59728074    -0.81410
O1176       O  0.57310962  0.40920156  0.64908886    -0.81390
O1177       O  0.56153711  0.44144062  0.61531510    -0.81440
O1178       O  0.67895242  0.40868186  0.64204059    -0.81410
O1179       O  0.62052664  0.40494526  0.68851331    -0.81370
O1180       O  0.63624902  0.40144676  0.59327958    -0.81440
Co1181     Co  0.66103077  0.44859868  0.65381466     1.51530
Co1182     Co  0.59849453  0.46329121  0.60524255     1.51690
Co1183     Co  0.65811363  0.43376508  0.61065084     1.51570
Co1184     Co  0.59634216  0.43716120  0.67169515     1.51470
O1185       O  0.62268398  0.44337869  0.63537605    -1.43330
C1186       C  0.64220566  0.41320313  0.70331585     1.08220
C1187       C  0.61937582  0.40864212  0.57283156     1.08310
C1188       C  0.69683708  0.40378252  0.62093852     1.08240
C1189       C  0.55521707  0.41949514  0.63098107     1.08220
O1190       O  0.31698828  0.53845471  0.42902549    -0.81400
O1191       O  0.42022909  0.53041062  0.38988369    -0.81420
O1192       O  0.34559069  0.55133001  0.33252141    -0.81430
O1193       O  0.40039159  0.55621577  0.44980773    -0.81370
O1194       O  0.37610747  0.52302159  0.35396946    -0.81500
O1195       O  0.37361850  0.52742766  0.42294556    -0.81410
O1196       O  0.44346743  0.56508963  0.41075217    -0.81400
O1197       O  0.31405266  0.55144156  0.38170343    -0.81440
C1198       C  0.30561632  0.53583730  0.40396459     1.08290
C1199       C  0.44327039  0.53966676  0.40038803     1.08180
C1200       C  0.35714825  0.52668878  0.33486255     1.08310
C1201       C  0.38840493  0.53147883  0.44550160     1.08190
O1202       O  0.35353030  0.57856005  0.45502834    -0.81400
O1203       O  0.39301332  0.57517662  0.32304331    -0.81480
O1204       O  0.33166360  0.61803907  0.38409547    -0.81410
O1205       O  0.41729212  0.61802576  0.39095819    -0.81390
O1206       O  0.43609232  0.58517589  0.36163599    -0.81440
O1207       O  0.31611941  0.59101347  0.41690477    -0.81410
O1208       O  0.37639443  0.61405647  0.43523414    -0.81370
O1209       O  0.36558177  0.61020002  0.33906089    -0.81440
Co1210     Co  0.34731913  0.55958626  0.41579555     1.51530
Co1211     Co  0.40426434  0.55447688  0.35941167     1.51690
Co1212     Co  0.34197412  0.58312422  0.36202605     1.51570
Co1213     Co  0.40717934  0.58865765  0.41987801     1.51470
O1214       O  0.37743167  0.57504598  0.38895413    -1.43330
C1215       C  0.36447935  0.60367767  0.45741969     1.08220
C1216       C  0.38080446  0.59938882  0.31903664     1.08310
C1217       C  0.31234963  0.61296649  0.40185699     1.08240
C1218       C  0.43760129  0.60989967  0.37434724     1.08220
O1219       O  0.54792008  0.14585499  0.96416693    -0.81400
O1220       O  0.68141716  0.09591489  0.97096887    -0.81420
O1221       O  0.60313012  0.06420775  0.96154643    -0.81430
O1222       O  0.63856338  0.18670526  0.97643633    -0.81370
O1223       O  0.62550165  0.09473944  0.98785737    -0.81500
O1224       O  0.59475562  0.17370103  0.98838045    -0.81410
O1225       O  0.66185838  0.13466649  0.98983546    -0.81400
O1226       O  0.56312163  0.10309021  0.97554797    -0.81440
C1227       C  0.54891390  0.12549297  0.98172956     1.08290
C1228       C  0.68063402  0.11398869  0.99164717     1.08180
C1229       C  0.61480124  0.06999895  0.98527158     1.08310
C1230       C  0.61678686  0.18923516  0.99287098     1.08190
O1231       O  0.60475438  0.19781684  0.93310739    -0.81400
O1232       O  0.64429114  0.07531038  0.92876972    -0.81480
O1233       O  0.55288471  0.11560814  0.91407590    -0.81410
O1234       O  0.68729094  0.16587995  0.94883475    -0.81390
O1235       O  0.67577299  0.12756455  0.92284723    -0.81440
O1236       O  0.56480776  0.16185320  0.90946262    -0.81410
O1237       O  0.64212481  0.17623137  0.91462232    -0.81370
O1238       O  0.60455471  0.08181545  0.90322813    -0.81440
Co1239     Co  0.58095105  0.16667402  0.94850146     1.51530
Co1240     Co  0.64695431  0.11137236  0.95390970     1.51690
Co1241     Co  0.58314445  0.09472734  0.93828788     1.51570
Co1242     Co  0.64848757  0.15291624  0.95060814     1.51470
O1243       O  0.60955363  0.13182154  0.94331548    -1.43330
C1244       C  0.62743931  0.19901539  0.91842182     1.08220
C1245       C  0.62743415  0.06718636  0.90837108     1.08310
C1246       C  0.54801785  0.14094485  0.90407079     1.08240
C1247       C  0.69484738  0.14692663  0.93032129     1.08220
O1248       O  0.19330289  0.95357715  0.65563080    -0.81400
O1249       O  0.08330843  0.98410026  0.63051986    -0.81420
O1250       O  0.16654905  0.95889754  0.56775180    -0.81430
O1251       O  0.11946990  0.97938200  0.67161728    -0.81370
O1252       O  0.12869069  0.98240512  0.58606203    -0.81500
O1253       O  0.15141349  0.95542430  0.69651706    -0.81410
O1254       O  0.06313498  0.96425875  0.66936709    -0.81400
O1255       O  0.16875549  0.97774531  0.62371720    -0.81440
C1256       C  0.19015651  0.97619320  0.64047504     1.08290
C1257       C  0.06316163  0.98400447  0.65012393     1.08180
C1258       C  0.14869623  0.97998921  0.56655212     1.08310
C1259       C  0.13647638  0.97805887  0.69287851     1.08190
O1260       O  0.13666452  0.89584329  0.68502184    -0.81400
O1261       O  0.10762327  0.92502295  0.57072146    -0.81480
O1262       O  0.19526072  0.92199817  0.60989416    -0.81410
O1263       O  0.07214034  0.90921445  0.65179305    -0.81390
O1264       O  0.06540641  0.92826670  0.60999543    -0.81440
O1265       O  0.17877172  0.89346204  0.64318273    -0.81410
O1266       O  0.10372535  0.92617234  0.70020701    -0.81370
O1267       O  0.14757090  0.90492178  0.58364066    -0.81440
Co1268     Co  0.16257129  0.92470314  0.66761008     1.51530
Co1269     Co  0.10081589  0.95219528  0.60403156     1.51690
Co1270     Co  0.15595330  0.94145211  0.60390177     1.51570
Co1271     Co  0.09751012  0.94379461  0.65991271     1.51470
O1272       O  0.13047090  0.93066184  0.63601421    -1.43330
C1273       C  0.12117361  0.90526989  0.70547213     1.08220
C1274       C  0.12663992  0.90587839  0.56664948     1.08310
C1275       C  0.19888252  0.89988034  0.62601704     1.08240
C1276       C  0.05592779  0.91261590  0.63005304     1.08220
O1277       O  0.15316502  0.70361239  0.96534392    -0.81400
O1278       O  0.12581745  0.59262455  0.99342124    -0.81420
O1279       O  0.06177651  0.65771759  0.96020560    -0.81430
O1280       O  0.18519133  0.61692810  0.96434083    -0.81370
O1281       O  0.08399421  0.63227473  0.99255606    -0.81500
O1282       O  0.15949393  0.64928326  0.98825186    -0.81410
O1283       O  0.15195993  0.56828996  0.96280197    -0.81400
O1284       O  0.10851259  0.68668040  0.96992302    -0.81440
C1285       C  0.12837350  0.70490919  0.97706275     1.08290
C1286       C  0.14047405  0.57058384  0.98755350     1.08180
C1287       C  0.06213110  0.64668114  0.98524382     1.08310
C1288       C  0.18140065  0.63284062  0.98671848     1.08190
O1289       O  0.18307403  0.66209041  0.93275228    -0.81400
O1290       O  0.06186575  0.60732344  0.93864394    -0.81480
O1291       O  0.08257153  0.69458230  0.91862465    -0.81410
O1292       O  0.13277619  0.58194583  0.90573903    -0.81390
O1293       O  0.10307656  0.56618996  0.93981961    -0.81440
O1294       O  0.12966849  0.68649314  0.91405392    -0.81410
O1295       O  0.16886961  0.62819295  0.90374629    -0.81370
O1296       O  0.07778323  0.63658595  0.90450746    -0.81440
Co1297     Co  0.14348231  0.66552489  0.95195535     1.51530
Co1298     Co  0.09539187  0.60108088  0.96562241     1.51690
Co1299     Co  0.09725246  0.66027770  0.93498632     1.51570
Co1300     Co  0.15769873  0.60080229  0.93407510     1.51470
O1301       O  0.12347656  0.62703102  0.94528896    -1.43330
C1302       C  0.18847226  0.64520466  0.91158508     1.08220
C1303       C  0.05809949  0.62017865  0.91450896     1.08310
C1304       C  0.10703411  0.70257308  0.90913594     1.08240
C1305       C  0.11551512  0.56320408  0.91529251     1.08220
O1306       O  0.97100988  0.59719937  0.13599929    -0.81400
O1307       O  0.96683975  0.67588074  0.11764563    -0.81420
O1308       O  0.95666035  0.61101361  0.07162722    -0.81430
O1309       O  0.96885749  0.64104071  0.17083907    -0.81370
O1310       O  0.94607135  0.65684872  0.06465499    -0.81500
O1311       O  0.95476448  0.59972914  0.19202071    -0.81410
O1312       O  0.95493406  0.69665927  0.15912255    -0.81400
O1313       O  0.94682990  0.56752536  0.10984755    -0.81440
C1314       C  0.97040472  0.57454133  0.12084769     1.08290
C1315       C  0.97183705  0.69511062  0.13754506     1.08180
C1316       C  0.96113697  0.63465049  0.05869688     1.08310
C1317       C  0.97192165  0.62136786  0.19098283     1.08190
O1318       O  0.90085863  0.61850963  0.18246868    -0.81400
O1319       O  0.88804724  0.66077454  0.08184482    -0.81480
O1320       O  0.88869370  0.57917639  0.11190452    -0.81410
O1321       O  0.90309579  0.68954673  0.13310112    -0.81390
O1322       O  0.92316319  0.70565403  0.09291780    -0.81440
O1323       O  0.91369448  0.57101244  0.15249392    -0.81410
O1324       O  0.91353540  0.66336394  0.18460214    -0.81370
O1325       O  0.89603667  0.61708792  0.06442044    -0.81440
Co1326     Co  0.93494891  0.60913513  0.15745084     1.51530
Co1327     Co  0.92613824  0.66552374  0.10198093     1.51690
Co1328     Co  0.92167543  0.59641328  0.09170690     1.51570
Co1329     Co  0.93529954  0.66227613  0.14783040     1.51470
O1330       O  0.92016973  0.62770488  0.12359648    -1.43330
C1331       C  0.90123512  0.64221091  0.19631237     1.08220
C1332       C  0.88438055  0.64174844  0.06230415     1.08310
C1333       C  0.89279103  0.56476535  0.13504844     1.08240
C1334       C  0.90649097  0.70993320  0.11440040     1.08220
O1335       O  0.96311459  0.18924785  0.60414031    -0.81400
O1336       O  0.95388991  0.07344985  0.65736500    -0.81420
O1337       O  0.98268630  0.13135431  0.67927197    -0.81430
O1338       O  0.95969059  0.09514449  0.56861394    -0.81370
O1339       O  0.94820512  0.11012714  0.70268154    -0.81500
O1340       O  0.96616595  0.14122017  0.57841909    -0.81410
O1341       O  0.98017207  0.09595942  0.62450036    -0.81400
O1342       O  0.98857430  0.16360013  0.63346512    -0.81440
C1343       C  0.98731732  0.18429697  0.61636804     1.08290
C1344       C  0.97770684  0.07650313  0.64361326     1.08180
C1345       C  0.97399774  0.11858382  0.70141380     1.08310
C1346       C  0.97075545  0.11909841  0.56191395     1.08190
O1347       O  0.91811136  0.16929692  0.56619401    -0.81400
O1348       O  0.89447134  0.13082162  0.68341171    -0.81480
O1349       O  0.93796123  0.19933689  0.65058907    -0.81410
O1350       O  0.92678184  0.07276459  0.60913851    -0.81390
O1351       O  0.89426644  0.08764489  0.63942300    -0.81440
O1352       O  0.90285379  0.18310751  0.62278235    -0.81410
O1353       O  0.90991105  0.12397693  0.58014688    -0.81370
O1354       O  0.92959804  0.16171919  0.69486314    -0.81440
Co1355     Co  0.93194117  0.15789478  0.60301115     1.51530
Co1356     Co  0.92271000  0.10261846  0.66812533     1.51690
Co1357     Co  0.95900968  0.16248881  0.66321189     1.51570
Co1358     Co  0.94602484  0.11092262  0.60416186     1.51470
O1359       O  0.93731710  0.13404494  0.63953782    -1.43330
C1360       C  0.90771068  0.14416110  0.56070705     1.08220
C1361       C  0.90490005  0.15031226  0.70000945     1.08310
C1362       C  0.91400995  0.20361253  0.63754469     1.08240
C1363       C  0.90398800  0.06785403  0.62308198     1.08220
O1364       O  0.55255596  0.96542212  0.10387632    -0.81400
O1365       O  0.66266186  0.99199198  0.13312585    -0.81420
O1366       O  0.59662314  0.96063859  0.19677519    -0.81430
O1367       O  0.63749504  0.96500278  0.07388934    -0.81370
O1368       O  0.62290029  0.99194088  0.17383641    -0.81500
O1369       O  0.60644865  0.98895023  0.10124504    -0.81410
O1370       O  0.68595863  0.96106691  0.10668505    -0.81400
O1371       O  0.56691676  0.97165115  0.14914840    -0.81440
C1372       C  0.55010290  0.97845296  0.12782786     1.08290
C1373       C  0.68458004  0.98572044  0.11873510     1.08180
C1374       C  0.60713016  0.98588892  0.19500235     1.08310
C1375       C  0.62249732  0.98758811  0.07917003     1.08190
O1376       O  0.59190514  0.93476657  0.07554112    -0.81400
O1377       O  0.64627386  0.93760499  0.19660808    -0.81480
O1378       O  0.55712247  0.92049471  0.17465345    -0.81410
O1379       O  0.67044509  0.90367119  0.12408758    -0.81390
O1380       O  0.68732572  0.93689574  0.15466736    -0.81440
O1381       O  0.56761669  0.91486440  0.12809411    -0.81410
O1382       O  0.62513265  0.90380825  0.08664698    -0.81370
O1383       O  0.61505154  0.90453349  0.18116735    -0.81440
Co1384     Co  0.58932913  0.95241752  0.11546222     1.51530
Co1385     Co  0.65328152  0.96408462  0.16305457     1.51690
Co1386     Co  0.59268061  0.93566109  0.16110281     1.51570
Co1387     Co  0.65268620  0.93337044  0.10003865     1.51470
O1388       O  0.62695248  0.94415716  0.13510298    -1.43330
C1389       C  0.60713193  0.91305954  0.06861426     1.08220
C1390       C  0.63352178  0.91336109  0.19984589     1.08310
C1391       C  0.54960522  0.91189506  0.14945552     1.08240
C1392       C  0.68976614  0.91252518  0.14119439     1.08220
C1393       C  0.03568167  0.64476821  0.00312236    -0.07390
C1394       C  0.02804722  0.61719392  0.01331634    -0.18510
C1395       C  0.00296227  0.61276584  0.02947992     0.09810
C1396       C  0.98533115  0.63684452  0.03732944    -0.07310
C1397       C  0.99245920  0.66429208  0.02595722    -0.18550
C1398       C  0.01722197  0.66843472  0.00894256     0.09840
S1399       S  0.99457423  0.57555879  0.03802753    -0.33510
S1400       S  0.02545209  0.70463010  0.99714777    -0.33520
H1401       H  0.02508944  0.69707295  0.96759719     0.27850
H1402       H  0.96562139  0.57790106  0.02891200     0.27850
H1403       H  0.04139583  0.59856792  0.00782531     0.18440
H1404       H  0.97876206  0.68281508  0.03043285     0.18450
C1405       C  0.00176870  0.05533693  0.64834614    -0.07390
C1406       C  0.99681676  0.03134586  0.66640023    -0.18510
C1407       C  0.01627121  0.00804937  0.66786664     0.09810
C1408       C  0.04200507  0.00853925  0.65123507    -0.07310
C1409       C  0.04784277  0.03340558  0.63473761    -0.18550
C1410       C  0.02857182  0.05683087  0.63354440     0.09840
S1411       S  0.00621445  0.97823084  0.69081411    -0.33510
S1412       S  0.04017263  0.08791394  0.61304795    -0.33520
H1413       H  0.03209495  0.10804848  0.63467047     0.27850
H1414       H  0.00928971  0.95728902  0.66872256     0.27850
H1415       H  0.97700851  0.03002755  0.67877587     0.18440
H1416       H  0.06784548  0.03486221  0.62267460     0.18450
C1417       C  0.62003323  0.00976642  0.05651630    -0.07390
C1418       C  0.60787395  0.00089888  0.03013816    -0.18510
C1419       C  0.60575515  0.01973145  0.00665706     0.09810
C1420       C  0.61621893  0.04859268  0.00930842    -0.07310
C1421       C  0.62844945  0.05737026  0.03597041    -0.18550
C1422       C  0.63016575  0.03845495  0.05960648     0.09840
S1423       S  0.58960182  0.00496955  0.97422384    -0.33510
S1424       S  0.64691614  0.05176630  0.09234075    -0.33520
H1425       H  0.62819172  0.03751797  0.11141619     0.27850
H1426       H  0.61394061  0.01070842  0.95705961     0.27850
H1427       H  0.60005858  0.97881924  0.02773506     0.18440
H1428       H  0.63670609  0.07922351  0.03856869     0.18450
C1429       C  0.39318257  0.63363537  0.54097576    -0.07390
C1430       C  0.36907655  0.61527278  0.53920339    -0.18510
C1431       C  0.35685531  0.60773697  0.51229341     0.09810
C1432       C  0.36999023  0.61727332  0.48633586    -0.07310
C1433       C  0.39303121  0.63701795  0.48839902    -0.18550
C1434       C  0.40475365  0.64524522  0.51517304     0.09840
S1435       S  0.32402178  0.58691603  0.51266165    -0.33510
S1436       S  0.43637172  0.66833032  0.51560922    -0.33520
H1437       H  0.43882304  0.67230216  0.48552875     0.27850
H1438       H  0.31287085  0.59946104  0.48730657     0.27850
H1439       H  0.35953775  0.60698378  0.55890877     0.18440
H1440       H  0.40321899  0.64472010  0.46882668     0.18450
C1441       C  0.50757616  0.56166735  0.65699657    -0.07390
C1442       C  0.52439047  0.55876554  0.63185290    -0.18510
C1443       C  0.54524663  0.53686059  0.62900152     0.09810
C1444       C  0.55028791  0.51748064  0.65229449    -0.07310
C1445       C  0.53456443  0.52122765  0.67793655    -0.18550
C1446       C  0.51340258  0.54286701  0.68047845     0.09840
S1447       S  0.56261214  0.53258645  0.59412086    -0.32550
S1448       S  0.49468115  0.54521310  0.71426182    -0.33520
H1449       H  0.49705040  0.57552700  0.71471775     0.27850
H1450       H  0.55909959  0.56160013  0.58537784     0.27850
H1451       H  0.51980838  0.57241977  0.61338706     0.18440
H1452       H  0.53855499  0.50694687  0.69609456     0.18450
C1453       C  0.46798268  0.39044577  0.61822315    -0.07390
C1454       C  0.47328858  0.41508016  0.63502187    -0.18510
C1455       C  0.50159213  0.42378957  0.64135682     0.09810
C1456       C  0.52530042  0.40796197  0.62987406    -0.07310
C1457       C  0.51990643  0.38140612  0.61609578    -0.18550
C1458       C  0.49154677  0.37234115  0.61037828     0.09840
S1459       S  0.50665938  0.45484944  0.66451157    -0.33510
S1460       S  0.48703858  0.33786387  0.59244404    -0.33520
H1461       H  0.46065702  0.33144248  0.60598722     0.27850
H1462       H  0.47777857  0.45795174  0.67350027     0.27850
H1463       H  0.45520640  0.42804531  0.64230097     0.18440
H1464       H  0.53782114  0.36796983  0.60923784     0.18450
C1465       C  0.36757953  0.46622575  0.50821334    -0.07390
C1466       C  0.39011644  0.46160435  0.48807686    -0.18510
C1467       C  0.39839323  0.48288139  0.46834622     0.09810
C1468       C  0.38485320  0.51019966  0.46901239    -0.07310
C1469       C  0.36261447  0.51515459  0.48921608    -0.18550
C1470       C  0.35354567  0.49346686  0.50850999     0.09840
S1471       S  0.42614968  0.47372899  0.44264152    -0.33510
S1472       S  0.32318170  0.50059613  0.53197290    -0.33520
H1473       H  0.31168661  0.52367170  0.51579265     0.27850
H1474       H  0.40992683  0.48258770  0.41851613     0.27850
H1475       H  0.40120555  0.44089317  0.48711622     0.18440
H1476       H  0.35136924  0.53568879  0.48903295     0.18450
C1477       C  0.38398407  0.47407456  0.61802055    -0.07390
C1478       C  0.41263112  0.48074879  0.62433962    -0.18510
C1479       C  0.42121523  0.50900304  0.63045212     0.09810
C1480       C  0.40099336  0.53209210  0.62976390    -0.07310
C1481       C  0.37172336  0.52533330  0.62525725    -0.18550
C1482       C  0.36301604  0.49654351  0.61944658     0.09840
S1483       S  0.45859610  0.51377183  0.63885186    -0.33510
S1484       S  0.32556555  0.49031837  0.61115059    -0.33520
H1485       H  0.32377105  0.46533397  0.62838365     0.27850
H1486       H  0.45234933  0.51844805  0.66833608     0.27850
H1487       H  0.42892141  0.46397168  0.62268324     0.18440
H1488       H  0.35580722  0.54262908  0.62494645     0.18450
C1489       C  0.64442297  0.54812409  0.76105285    -0.07390
C1490       C  0.64595846  0.55799726  0.73230641    -0.18510
C1491       C  0.64292794  0.53879075  0.70882576     0.09810
C1492       C  0.63792167  0.50910122  0.71424678    -0.07310
C1493       C  0.63804966  0.49917938  0.74296524    -0.18550
C1494       C  0.64177763  0.51813099  0.76625392     0.09840
S1495       S  0.64347338  0.55380619  0.67287624    -0.33510
S1496       S  0.64012364  0.50289282  0.80201950    -0.33520
H1497       H  0.66601393  0.51595677  0.81122175     0.27850
H1498       H  0.62052443  0.53679307  0.66239618     0.27850
H1499       H  0.64796569  0.58105425  0.72816619     0.18440
H1500       H  0.63493650  0.47631375  0.74742410     0.18450
C1501       C  0.53014846  0.64425490  0.77966774    -0.07390
C1502       C  0.51167820  0.62054563  0.78316155    -0.18510
C1503       C  0.48924181  0.61545077  0.76349409     0.09810
C1504       C  0.48644063  0.63403706  0.73941380    -0.07310
C1505       C  0.50243576  0.65996490  0.73875391    -0.18550
C1506       C  0.52432950  0.66509085  0.75854344     0.09840
S1507       S  0.46579677  0.58486137  0.76912816    -0.33510
S1508       S  0.54585908  0.69700208  0.75417867    -0.33520
H1509       H  0.57109385  0.68018899  0.75334333     0.27850
H1510       H  0.47903335  0.57444784  0.79447502     0.27850
H1511       H  0.51591735  0.60523120  0.80036611     0.18440
H1512       H  0.49922605  0.67557161  0.72154007     0.18450
C1513       C  0.24600794  0.46577245  0.40034712    -0.07390
C1514       C  0.24061304  0.49043914  0.38331548    -0.18510
C1515       C  0.25971242  0.51389772  0.38327046     0.09810
C1516       C  0.28464976  0.51242229  0.40066671    -0.07310
C1517       C  0.29110393  0.48669769  0.41554965    -0.18550
C1518       C  0.27273187  0.46302819  0.41454154     0.09840
S1519       S  0.25117560  0.54457679  0.36074614    -0.33510
S1520       S  0.28567966  0.42994976  0.43052822    -0.33520
H1521       H  0.27635266  0.41152011  0.40810401     0.27850
H1522       H  0.26053260  0.56544309  0.38092547     0.27850
H1523       H  0.22178417  0.49119860  0.36943123     0.18440
H1524       H  0.31128167  0.48461149  0.42737070     0.18450
C1525       C  0.24018157  0.37927379  0.46277708    -0.07390
C1526       C  0.24553637  0.40447765  0.47916916    -0.18510
C1527       C  0.26445858  0.40420016  0.50275904     0.09810
C1528       C  0.27790190  0.37790692  0.51095210    -0.07310
C1529       C  0.27193594  0.35258203  0.49520572    -0.18550
C1530       C  0.25306653  0.35292707  0.47164843     0.09840
S1531       S  0.26941980  0.43778686  0.52216158    -0.33510
S1532       S  0.24385278  0.31844107  0.45639403    -0.33520
H1533       H  0.21408976  0.32318959  0.46048345     0.27850
H1534       H  0.26587441  0.42445218  0.54909497     0.27850
H1535       H  0.23504308  0.42471847  0.47340217     0.18440
H1536       H  0.28173132  0.33216889  0.50157201     0.18450
C1537       C  0.53899813  0.75963851  0.63121605    -0.07390
C1538       C  0.51984796  0.75773706  0.65469253    -0.18510
C1539       C  0.49638599  0.73856819  0.65407857     0.09810
C1540       C  0.49124332  0.72105089  0.62933873    -0.07310
C1541       C  0.51003280  0.72297736  0.60590233    -0.18550
C1542       C  0.53378610  0.74166770  0.60665946     0.09840
S1543       S  0.47386666  0.73682664  0.68573440    -0.33510
S1544       S  0.55616318  0.74163157  0.57522482    -0.33520
H1545       H  0.54410142  0.76826138  0.56658967     0.27850
H1546       H  0.44831391  0.73971519  0.66950480     0.27850
H1547       H  0.52328317  0.77103758  0.67383169     0.18440
H1548       H  0.50692134  0.70895407  0.58731235     0.18450
C1549       C  0.60491893  0.75679457  0.71817451    -0.07390
C1550       C  0.60322291  0.76852723  0.74634265    -0.18510
C1551       C  0.60834245  0.75134957  0.77078963     0.09810
C1552       C  0.61631084  0.72195732  0.76725987    -0.07310
C1553       C  0.61646585  0.70989046  0.73930610    -0.18550
C1554       C  0.61033112  0.72667545  0.71490624     0.09840
S1555       S  0.60446592  0.76823515  0.80574859    -0.33510
S1556       S  0.60932195  0.70812797  0.68039270    -0.33520
H1557       H  0.58699996  0.72543858  0.66893187     0.27850
H1558       H  0.59240875  0.74366587  0.81887967     0.27850
H1559       H  0.59879207  0.79146065  0.74941479     0.18440
H1560       H  0.62106291  0.68694764  0.73648643     0.18450
C1561       C  0.28704173  0.25513671  0.38998687    -0.07390
C1562       C  0.26348312  0.24986078  0.40827965    -0.18510
C1563       C  0.23808702  0.26602860  0.40662683     0.09810
C1564       C  0.23624562  0.28958168  0.38716435    -0.07310
C1565       C  0.25985729  0.29526372  0.36900471    -0.18550
C1566       C  0.28492871  0.27818841  0.36992151     0.09840
S1567       S  0.20833595  0.25534401  0.42930075    -0.33510
S1568       S  0.31260002  0.28636423  0.34412272    -0.33520
H1569       H  0.30384583  0.26348733  0.32580500     0.27850
H1570       H  0.22183168  0.23229297  0.44394277     0.27850
H1571       H  0.26459380  0.23227934  0.42367563     0.18440
H1572       H  0.25890505  0.31323412  0.35397785     0.18450
C1573       C  0.35886699  0.25715141  0.46704882    -0.07390
C1574       C  0.37984044  0.27899777  0.46369732    -0.18510
C1575       C  0.38284195  0.30157878  0.48373046     0.09810
C1576       C  0.36551601  0.30211573  0.50873967    -0.07310
C1577       C  0.34399679  0.28097242  0.51198218    -0.18550
C1578       C  0.34022427  0.25877049  0.49135679     0.09840
S1579       S  0.40872393  0.32928845  0.47562598    -0.33510
S1580       S  0.31046073  0.23431822  0.49669618    -0.33520
H1581       H  0.32860460  0.21041751  0.50199056     0.27850
H1582       H  0.38946801  0.35206434  0.48212836     0.27850
H1583       H  0.39413396  0.27876795  0.44512778     0.18440
H1584       H  0.32989015  0.28187147  0.53069739     0.18450
C1585       C  0.39157020  0.11665947  0.24227995    -0.07390
C1586       C  0.41375919  0.11506452  0.26287837    -0.18510
C1587       C  0.41006712  0.12540427  0.29120815     0.09810
C1588       C  0.38243635  0.13519342  0.30035575    -0.07310
C1589       C  0.35942312  0.13394834  0.28015457    -0.18550
C1590       C  0.36387309  0.12554907  0.25117398     0.09840
S1591       S  0.44218624  0.13042894  0.31285415    -0.33510
S1592       S  0.33376222  0.12751698  0.22646437    -0.33520
H1593       H  0.34434479  0.10679522  0.20662079     0.27850
H1594       H  0.46111466  0.11348808  0.29593151     0.27850
H1595       H  0.43508258  0.10849801  0.25582011     0.18440
H1596       H  0.33812278  0.14151432  0.28639077     0.18450
C1597       C  0.48840597  0.04757738  0.13716888    -0.07390
C1598       C  0.50408985  0.04394362  0.11132674    -0.18510
C1599       C  0.52418277  0.02178941  0.10786743     0.09810
C1600       C  0.52937585  0.00246049  0.13081756    -0.07310
C1601       C  0.51479470  0.00648251  0.15716928    -0.18550
C1602       C  0.49423394  0.02862382  0.16053783     0.09840
S1603       S  0.54359752  0.02034855  0.07410226    -0.33510
S1604       S  0.47655517  0.03149347  0.19506201    -0.33520
H1605       H  0.45001050  0.02232649  0.18337353     0.27850
H1606       H  0.52738398  0.99660048  0.06379708     0.27850
H1607       H  0.50044476  0.05816089  0.09316109     0.18440
H1608       H  0.51901217  0.99190934  0.17504887     0.18450
C1609       C  0.49504116  0.13872598  0.05578207    -0.07390
C1610       C  0.50288870  0.11027653  0.04741008    -0.18510
C1611       C  0.52095407  0.10495979  0.02390985     0.09810
C1612       C  0.53253226  0.12868234  0.00886099    -0.07310
C1613       C  0.52721105  0.15711249  0.01921117    -0.18550
C1614       C  0.50839672  0.16240985  0.04225723     0.09840
S1615       S  0.52564331  0.06769867  0.01260324    -0.33510
S1616       S  0.50057492  0.19961801  0.05156108    -0.33520
H1617       H  0.47051682  0.19642787  0.04881231     0.27850
H1618       H  0.51775341  0.07299839  0.98364929     0.27850
H1619       H  0.49280039  0.09185160  0.05766648     0.18440
H1620       H  0.53653450  0.17555468  0.00823955     0.18450
C1621       C  0.36197742  0.62916479  0.23362212    -0.07390
C1622       C  0.38110173  0.60591199  0.23697381    -0.18510
C1623       C  0.39106550  0.59778216  0.26454683     0.09810
C1624       C  0.38000741  0.61233381  0.28951477    -0.07310
C1625       C  0.36331758  0.63751050  0.28554781    -0.18550
C1626       C  0.35466694  0.64627166  0.25799034     0.09840
S1627       S  0.41623795  0.56773742  0.26704330    -0.33510
S1628       S  0.33294256  0.67862432  0.25559615    -0.33520
H1629       H  0.34525914  0.68769694  0.22934203     0.27850
H1630       H  0.42026853  0.56336067  0.23714671     0.27850
H1631       H  0.38698762  0.59324302  0.21810782     0.18440
H1632       H  0.35560744  0.64974962  0.30412383     0.18450
C1633       C  0.25379613  0.63964030  0.04605552    -0.07390
C1634       C  0.22719326  0.65208981  0.05378953    -0.18510
C1635       C  0.20278608  0.64993774  0.03557563     0.09810
C1636       C  0.20475822  0.63393195  0.00922505    -0.07310
C1637       C  0.23110512  0.61995298  0.00275433    -0.18550
C1638       C  0.25542574  0.62303778  0.02044687     0.09840
S1639       S  0.16961099  0.66742227  0.04685245    -0.33510
S1640       S  0.28817414  0.60583726  0.00863706    -0.33520
H1641       H  0.30593208  0.62924002  0.01678040     0.27850
H1642       H  0.18108096  0.68281677  0.07063564     0.27850
H1643       H  0.22554560  0.66339853  0.07431201     0.18440
H1644       H  0.23338614  0.60738083  0.98298836     0.18450
C1645       C  0.34815515  0.23375578  0.64327362    -0.07390
C1646       C  0.37024813  0.24034870  0.62391415    -0.18510
C1647       C  0.37399969  0.26867816  0.61380963     0.09810
C1648       C  0.35358899  0.29057786  0.62130745    -0.07310
C1649       C  0.33365544  0.28466094  0.64315289    -0.18550
C1650       C  0.33190998  0.25693016  0.65525481     0.09840
S1651       S  0.40518520  0.27481774  0.59157557    -0.33510
S1652       S  0.30915111  0.25266596  0.68635300    -0.33520
H1653       H  0.32517204  0.22943467  0.69787571     0.27850
H1654       H  0.41189506  0.30161905  0.60457395     0.27850
H1655       H  0.38417522  0.22315267  0.61603862     0.18440
H1656       H  0.31956347  0.30167613  0.65103666     0.18450
C1657       C  0.35665097  0.14248216  0.54371961    -0.07390
C1658       C  0.35691536  0.11925315  0.52374454    -0.18510
C1659       C  0.36622874  0.12318577  0.49506630     0.09810
C1660       C  0.37573174  0.15085134  0.48615477    -0.07310
C1661       C  0.37842105  0.17299596  0.50709899    -0.18550
C1662       C  0.36875716  0.16924425  0.53542785     0.09840
S1663       S  0.36451051  0.09252676  0.47069302    -0.33510
S1664       S  0.37083919  0.20012731  0.55937698    -0.33520
H1665       H  0.37418190  0.18338466  0.58454690     0.27850
H1666       H  0.38693974  0.10199823  0.45252961     0.27850
H1667       H  0.34792132  0.09847118  0.52986479     0.18440
H1668       H  0.38588447  0.19436912  0.50088645     0.18450
C1669       C  0.25115815  0.04749372  0.64485783    -0.07390
C1670       C  0.23976214  0.03845645  0.61819583    -0.18510
C1671       C  0.22198685  0.01399767  0.61606779     0.09810
C1672       C  0.21211458  0.99994791  0.64141390    -0.07310
C1673       C  0.22408046  0.00854955  0.66809781    -0.18550
C1674       C  0.24405757  0.03145492  0.66995095     0.09840
S1675       S  0.21727077  0.99905234  0.58037290    -0.33510
S1676       S  0.25906509  0.03986044  0.70498070    -0.33520
H1677       H  0.28692333  0.03041373  0.69712641     0.27850
H1678       H  0.21979851  0.97008276  0.58947183     0.27850
H1679       H  0.24673173  0.04906756  0.59850445     0.18440
H1680       H  0.21831275  0.99701497  0.68754980     0.18450
C1681       C  0.45652898  0.25878600  0.39972282    -0.07390
C1682       C  0.46497163  0.26650293  0.37147653    -0.18510
C1683       C  0.48831649  0.28524574  0.36654072     0.09810
C1684       C  0.50407835  0.29665007  0.39019577    -0.07310
C1685       C  0.49508345  0.28922153  0.41831406    -0.18550
C1686       C  0.47191053  0.27060207  0.42335458     0.09840
S1687       S  0.49583172  0.29489188  0.32983553    -0.33510
S1688       S  0.46271086  0.26337339  0.46047937    -0.33520
H1689       H  0.47497313  0.23537285  0.45937637     0.27850
H1690       H  0.49686217  0.32455579  0.33715666     0.27850
H1691       H  0.45347756  0.25767340  0.35295286     0.18440
H1692       H  0.50647358  0.29783247  0.43679837     0.18450
C1693       C  0.46123191  0.36307918  0.51820321    -0.07390
C1694       C  0.47714454  0.33747451  0.51364675    -0.18510
C1695       C  0.50254721  0.33780522  0.49720960     0.09810
C1696       C  0.51124221  0.36413863  0.48438472    -0.07310
C1697       C  0.49736789  0.39005897  0.49244312    -0.18550
C1698       C  0.47247457  0.38991490  0.50905761     0.09840
S1699       S  0.52202382  0.30418771  0.49316084    -0.33510
S1700       S  0.45569050  0.42429031  0.51845800    -0.33520
H1701       H  0.47480163  0.44252799  0.50347108     0.27850
H1702       H  0.54936987  0.31644084  0.49727307     0.27850
H1703       H  0.46941405  0.31713277  0.52238000     0.18440
H1704       H  0.50526997  0.41055212  0.48424079     0.18450
C1705       C  0.62088110  0.39299003  0.54468801    -0.07390
C1706       C  0.64259956  0.40095395  0.52485830    -0.18510
C1707       C  0.64048442  0.39383113  0.49516851     0.09810
C1708       C  0.61609499  0.37869287  0.48486105    -0.07310
C1709       C  0.59690820  0.36742310  0.50563679    -0.18550
C1710       C  0.59874715  0.37459258  0.53504479     0.09840
S1711       S  0.66884889  0.40551893  0.47152173    -0.33510
S1712       S  0.57062679  0.36173494  0.55851883    -0.33520
H1713       H  0.58686531  0.36357917  0.58423421     0.27850
H1714       H  0.66135079  0.38725529  0.44819346     0.27850
H1715       H  0.66039780  0.41438273  0.53213109     0.18440
H1716       H  0.57844300  0.35520531  0.49883159     0.18450
C1717       C  0.51100568  0.47760855  0.39006833    -0.07390
C1718       C  0.49820439  0.48994373  0.36566726    -0.18510
C1719       C  0.47731774  0.51182155  0.36848245     0.09810
C1720       C  0.46971162  0.52221017  0.39636595    -0.07310
C1721       C  0.48498677  0.51236175  0.42056013    -0.18550
C1722       C  0.50539420  0.48986580  0.41774727     0.09840
S1723       S  0.45963514  0.52547020  0.33634134    -0.33510
S1724       S  0.52371145  0.47650481  0.44964649    -0.33520
H1725       H  0.51078994  0.49568369  0.46964908     0.27850
H1726       H  0.47530122  0.50890458  0.31600876     0.27850
H1727       H  0.50309186  0.48113580  0.34459933     0.18440
H1728       H  0.47939286  0.52077801  0.44178339     0.18450
C1729       C  0.52347921  0.62788180  0.40129222    -0.07390
C1730       C  0.51905184  0.61989330  0.37216265    -0.18510
C1731       C  0.49079027  0.61728597  0.36073819     0.09810
C1732       C  0.46657695  0.62332277  0.37862976    -0.07310
C1733       C  0.47162657  0.63485566  0.40631381    -0.18550
C1734       C  0.49918627  0.63556618  0.41814287     0.09840
S1735       S  0.48686775  0.60589948  0.32354120    -0.33510
S1736       S  0.50090597  0.64276100  0.45619140    -0.33520
H1737       H  0.51320178  0.61543521  0.46203215     0.27850
H1738       H  0.45897140  0.61758614  0.31988151     0.27850
H1739       H  0.53746568  0.61448407  0.35869446     0.18440
H1740       H  0.45368555  0.63970427  0.42064039     0.18450
C1741       C  0.54239711  0.64005827  0.51293495    -0.07390
C1742       C  0.53655544  0.61138605  0.52146057    -0.18510
C1743       C  0.51456703  0.60499475  0.54107029     0.09810
C1744       C  0.49889507  0.62792295  0.55431904    -0.07310
C1745       C  0.50485022  0.65657598  0.54585894    -0.18550
C1746       C  0.52607643  0.66282552  0.52532782     0.09840
S1747       S  0.50693309  0.56711734  0.54674573    -0.33510
S1748       S  0.53142543  0.70018180  0.51608069    -0.33520
H1749       H  0.56147161  0.69762635  0.51947393     0.27850
H1750       H  0.47848064  0.56954797  0.53616810     0.27850
H1751       H  0.54808879  0.59344927  0.51142718     0.18440
H1752       H  0.49236960  0.67435494  0.55481372     0.18450
C1753       C  0.65048742  0.53942800  0.50180191    -0.07390
C1754       C  0.66675744  0.54546204  0.52668381    -0.18510
C1755       C  0.66672686  0.52642108  0.55022170     0.09810
C1756       C  0.65180303  0.49969554  0.54786320    -0.07310
C1757       C  0.63718270  0.49287830  0.52214556    -0.18550
C1758       C  0.63536728  0.51290438  0.49965154     0.09840
S1759       S  0.68602343  0.53801551  0.58223329    -0.33510
S1760       S  0.61208048  0.50395497  0.46964174    -0.33520
H1761       H  0.59843908  0.53119380  0.46877762     0.27850
H1762       H  0.67004671  0.52273171  0.60281583     0.27850
H1763       H  0.67825134  0.56586760  0.52840946     0.18440
H1764       H  0.62514702  0.47274352  0.52049203     0.18450
C1765       C  0.62557053  0.53244476  0.39356291    -0.07390
C1766       C  0.64565358  0.51252367  0.40496592    -0.18510
C1767       C  0.64057778  0.48247762  0.40355284     0.09810
C1768       C  0.61542611  0.47217569  0.38976172    -0.07310
C1769       C  0.59862391  0.49207142  0.37383479    -0.18550
C1770       C  0.60291799  0.52200290  0.37621721     0.09840
S1771       S  0.66547486  0.45889920  0.42184679    -0.33510
S1772       S  0.57731771  0.54583582  0.35882300    -0.33520
H1773       H  0.59512894  0.57054928  0.35917351     0.27850
H1774       H  0.65733962  0.43338213  0.40711866     0.27850
H1775       H  0.66348668  0.52038701  0.41806754     0.18440
H1776       H  0.58061215  0.48479328  0.36101245     0.18450
C1777       C  0.62837183  0.71581546  0.49804242    -0.07390
C1778       C  0.60243076  0.73147142  0.49630700    -0.18510
C1779       C  0.59712868  0.75587378  0.51386590     0.09810
C1780       C  0.61789731  0.76452093  0.53489040    -0.07310
C1781       C  0.64444470  0.74934381  0.53553080    -0.18550
C1782       C  0.65006062  0.72571817  0.51698451     0.09840
S1783       S  0.56391448  0.77508688  0.50716213    -0.33510
S1784       S  0.68529843  0.70924585  0.51703560    -0.33520
H1785       H  0.69556452  0.72262648  0.54245770     0.27850
H1786       H  0.57708047  0.80230263  0.50813543     0.27850
H1787       H  0.58629148  0.72499029  0.48051727     0.18440
H1788       H  0.66114813  0.75605961  0.55054545     0.18450
C1789       C  0.37695680  0.22487896  0.15210953    -0.07390
C1790       C  0.36058395  0.23085606  0.17678373    -0.18510
C1791       C  0.35194721  0.25934819  0.18354746     0.09810
C1792       C  0.36176100  0.28280814  0.16603641    -0.07310
C1793       C  0.37636224  0.27629448  0.14022049    -0.18550
C1794       C  0.38348522  0.24772901  0.13281652     0.09840
S1795       S  0.32905497  0.26473167  0.21495367    -0.33510
S1796       S  0.40377063  0.24235307  0.09996052    -0.33520
H1797       H  0.38338651  0.22290050  0.08837868     0.27850
H1798       H  0.32796416  0.23565296  0.22403231     0.27850
H1799       H  0.35515982  0.21313214  0.19107139     0.18440
H1800       H  0.38353671  0.29367058  0.12625132     0.18450
C1801       C  0.37410563  0.48578948  0.16314247    -0.07390
C1802       C  0.39385797  0.50867256  0.16789965    -0.18510
C1803       C  0.38658192  0.53788804  0.16176766     0.09810
C1804       C  0.35843930  0.54470480  0.15185039    -0.07310
C1805       C  0.33924809  0.52174945  0.14636611    -0.18550
C1806       C  0.34661203  0.49283246  0.15152742     0.09840
S1807       S  0.41341925  0.56526790  0.16878714    -0.33510
S1808       S  0.31831026  0.46658031  0.14592987    -0.33520
H1809       H  0.33387949  0.45177645  0.12421821     0.27850
H1810       H  0.40437414  0.58434424  0.14699182     0.27850
H1811       H  0.41494384  0.50382761  0.17691004     0.18440
H1812       H  0.31755281  0.52647108  0.13882599     0.18450
C1813       C  0.35248142  0.45963795  0.26991171    -0.07390
C1814       C  0.34092135  0.48720972  0.26408963    -0.18510
C1815       C  0.33981131  0.50885840  0.28536132     0.09810
C1816       C  0.35159826  0.50342783  0.31321314    -0.07310
C1817       C  0.36120674  0.47524850  0.31957831    -0.18550
C1818       C  0.36116589  0.45326707  0.29862401     0.09840
S1819       S  0.32422748  0.54302799  0.27468135    -0.33510
S1820       S  0.37249202  0.41779409  0.31030069    -0.33520
H1821       H  0.35061026  0.40319638  0.29490432     0.27850
H1822       H  0.35044641  0.55771387  0.27826677     0.27850
H1823       H  0.33342759  0.49238172  0.24246528     0.18440
H1824       H  0.36925448  0.47030036  0.34105966     0.18450
C1825       C  0.27754254  0.39378587  0.25216681    -0.07390
C1826       C  0.26566605  0.36572453  0.25189374    -0.18510
C1827       C  0.24675023  0.35680333  0.27363985     0.09810
C1828       C  0.24042317  0.37615785  0.29646257    -0.07310
C1829       C  0.25207917  0.40431951  0.29629864    -0.18550
C1830       C  0.26954855  0.41362281  0.27383302     0.09840
S1831       S  0.23353259  0.32003988  0.27234387    -0.33510
S1832       S  0.28073499  0.45097549  0.27409645    -0.33520
H1833       H  0.28567019  0.45276703  0.24411724     0.27850
H1834       H  0.23368833  0.31584157  0.30249292     0.27850
H1835       H  0.27263260  0.35007404  0.23575079     0.18440
H1836       H  0.24655454  0.41973433  0.31328178     0.18450
C1837       C  0.39063282  0.30466723  0.26568569    -0.07390
C1838       C  0.39444339  0.27681814  0.25317318    -0.18510
C1839       C  0.38927925  0.25147986  0.26898215     0.09810
C1840       C  0.38054557  0.25412063  0.29804541    -0.07310
C1841       C  0.37978573  0.28160976  0.31128578    -0.18550
C1842       C  0.38478097  0.30683392  0.29553630     0.09840
S1843       S  0.39345856  0.21700540  0.25049421    -0.33510
S1844       S  0.38350443  0.34091978  0.31480422    -0.33520
H1845       H  0.40390878  0.35479457  0.29707196     0.27850
H1846       H  0.38020697  0.19921193  0.27111992     0.27850
H1847       H  0.39954102  0.27465221  0.23035436     0.18440
H1848       H  0.37495545  0.28345087  0.33419539     0.18450
C1849       C  0.50877598  0.38585375  0.30005308    -0.07390
C1850       C  0.49840766  0.36115252  0.28543828    -0.18510
C1851       C  0.47867911  0.36332958  0.26233363     0.09810
C1852       C  0.46915178  0.39116607  0.25342142    -0.07310
C1853       C  0.48207216  0.41576054  0.26607082    -0.18550
C1854       C  0.50202810  0.41341583  0.28862676     0.09840
S1855       S  0.46647916  0.33036115  0.24478562    -0.33510
S1856       S  0.52046174  0.44587285  0.30030958    -0.33520
H1857       H  0.51830440  0.46028785  0.27358692     0.27850
H1858       H  0.48199239  0.31059563  0.26198164     0.27850
H1859       H  0.50637299  0.34010551  0.29161714     0.18440
H1860       H  0.47629584  0.43725314  0.25857446     0.18450
C1861       C  0.25410363  0.55137895  0.12352736    -0.07390
C1862       C  0.24348784  0.54004458  0.14950129    -0.18510
C1863       C  0.22601624  0.51519609  0.14982803     0.09810
C1864       C  0.21751394  0.50209116  0.12323414    -0.07310
C1865       C  0.22874278  0.51327016  0.09724134    -0.18550
C1866       C  0.24732694  0.53727190  0.09722344     0.09840
S1867       S  0.21672608  0.49969725  0.18452305    -0.33510
S1868       S  0.26055225  0.55004780  0.06298817    -0.33520
H1869       H  0.28967988  0.54511869  0.07018651     0.27850
H1870       H  0.22727642  0.52241744  0.20205855     0.27850
H1871       H  0.24983578  0.55022018  0.16973876     0.18440
H1872       H  0.22293044  0.50340829  0.07669324     0.18450
C1873       C  0.21982578  0.39030227  0.14469930    -0.07390
C1874       C  0.24094353  0.39760164  0.12417163    -0.18510
C1875       C  0.26978548  0.38818866  0.12729052     0.09810
C1876       C  0.27751223  0.37100027  0.15146802    -0.07310
C1877       C  0.25502577  0.35965810  0.16863025    -0.18550
C1878       C  0.22661511  0.36969625  0.16604615     0.09840
S1879       S  0.29646009  0.39945271  0.10115427    -0.33510
S1880       S  0.20054190  0.35725165  0.19217571    -0.33520
H1881       H  0.17608437  0.36232365  0.17478657     0.27850
H1882       H  0.27761271  0.41519535  0.08314993     0.27850
H1883       H  0.23542781  0.41284807  0.10725879     0.18440
H1884       H  0.25990405  0.34508682  0.18627547     0.18450
C1885       C  0.12242433  0.40485776  0.22554520    -0.07390
C1886       C  0.15066512  0.41080149  0.23382695    -0.18510
C1887       C  0.15923978  0.41110194  0.26251858     0.09810
C1888       C  0.14039300  0.40030833  0.28436818    -0.07310
C1889       C  0.11228947  0.39185336  0.27586310    -0.18550
C1890       C  0.10274227  0.39524430  0.24684759     0.09840
S1891       S  0.19342708  0.42894854  0.26932326    -0.33510
S1892       S  0.06590642  0.38615043  0.23824853    -0.33520
H1893       H  0.06964767  0.38433230  0.20806847     0.27850
H1894       H  0.20664984  0.42195787  0.24271369     0.27850
H1895       H  0.16569305  0.41855330  0.21789612     0.18440
H1896       H  0.09753523  0.38337807  0.29189710     0.18450
C1897       C  0.12693789  0.50449754  0.05005435    -0.07390
C1898       C  0.15531145  0.51352751  0.04386766    -0.18510
C1899       C  0.16090299  0.53378501  0.02220192     0.09810
C1900       C  0.13758680  0.54567065  0.00677588    -0.07310
C1901       C  0.10932127  0.53623188  0.01245981    -0.18550
C1902       C  0.10370436  0.51573412  0.03390157     0.09840
S1903       S  0.19769578  0.54524243  0.01691544    -0.33510
S1904       S  0.06680555  0.50608867  0.04190588    -0.33520
H1905       H  0.05353888  0.52323432  0.02053157     0.27850
H1906       H  0.19566786  0.54869047  0.98680053     0.27850
H1907       H  0.17329282  0.50473689  0.05605751     0.18440
H1908       H  0.09148611  0.54580076  0.00061335     0.18450
C1909       C  0.03980157  0.51294966  0.11265111    -0.07390
C1910       C  0.04587450  0.54156525  0.12185390    -0.18510
C1911       C  0.02425096  0.56276541  0.12353249     0.09810
C1912       C  0.99556324  0.55518841  0.11647559    -0.07310
C1913       C  0.98998313  0.52725399  0.10533078    -0.18550
C1914       C  0.01146078  0.50619931  0.10344994     0.09840
S1915       S  0.03484985  0.59882147  0.13452909    -0.33510
S1916       S  0.00028445  0.47085442  0.09099433    -0.33520
H1917       H  0.00582902  0.45813766  0.11799571     0.27850
H1918       H  0.01813385  0.61270987  0.11317225     0.27850
H1919       H  0.06762943  0.54748209  0.12824612     0.18440
H1920       H  0.96824617  0.52108374  0.09910640     0.18450
C1921       C  0.21066704  0.38006216  0.62866453    -0.07390
C1922       C  0.23431854  0.36569731  0.64130836    -0.18510
C1923       C  0.26271520  0.37495350  0.63695058     0.09810
C1924       C  0.26824987  0.39820844  0.61798466    -0.07310
C1925       C  0.24450196  0.41520381  0.60884887    -0.18550
C1926       C  0.21577901  0.40665852  0.61446606     0.09840
S1927       S  0.29089217  0.35570300  0.65577291    -0.33510
S1928       S  0.18699800  0.42975523  0.60173644    -0.33520
H1929       H  0.16536917  0.41816507  0.61950745     0.27850
H1930       H  0.30981098  0.37955382  0.65725803     0.27850
H1931       H  0.23083975  0.34605852  0.65357440     0.18440
H1932       H  0.24814534  0.43428824  0.59579714     0.18450
C1933       C  0.24840497  0.22205896  0.66084502    -0.07390
C1934       C  0.24705109  0.23581942  0.63394123    -0.18510
C1935       C  0.23032179  0.26049243  0.63021801     0.09810
C1936       C  0.21415843  0.27110690  0.65374741    -0.07310
C1937       C  0.21717853  0.25897998  0.68131289    -0.18550
C1938       C  0.23466544  0.23446322  0.68524260     0.09840
S1939       S  0.22869844  0.27775235  0.59510034    -0.33510
S1940       S  0.23797249  0.21843864  0.72072169    -0.33520
H1941       H  0.21988746  0.23826317  0.73533806     0.27850
H1942       H  0.24834620  0.25917857  0.58089279     0.27850
H1943       H  0.25907746  0.22706520  0.61574849     0.18440
H1944       H  0.20445290  0.26752718  0.69910867     0.18450
C1945       C  0.13493858  0.36968822  0.53525648    -0.07390
C1946       C  0.10974562  0.37067201  0.51802758    -0.18510
C1947       C  0.11151507  0.37208669  0.48763395     0.09810
C1948       C  0.13905840  0.37203864  0.47459160    -0.07310
C1949       C  0.16367215  0.37283459  0.49238891    -0.18550
C1950       C  0.16200132  0.37284984  0.52212976     0.09840
S1951       S  0.07849600  0.36883367  0.46715629    -0.33510
S1952       S  0.19578539  0.37310405  0.54175053    -0.33520
H1953       H  0.18324966  0.37988418  0.56840331     0.27850
H1954       H  0.08747668  0.38523878  0.44335479     0.27850
H1955       H  0.08882978  0.36731144  0.52797495     0.18440
H1956       H  0.18496449  0.37142267  0.48344027     0.18450
C1957       C  0.01323928  0.20294597  0.61327359    -0.07390
C1958       C  0.01471388  0.22265490  0.59041656    -0.18510
C1959       C  0.03677438  0.24346802  0.58921980     0.09810
C1960       C  0.05827846  0.24419559  0.61128006    -0.07310
C1961       C  0.05871816  0.22226877  0.63194621    -0.18550
C1962       C  0.03635933  0.20227951  0.63373058     0.09840
S1963       S  0.03632009  0.26925948  0.55986248    -0.33510
S1964       S  0.03745471  0.17937441  0.66516508    -0.33520
H1965       H  0.01106087  0.19079270  0.67508480     0.27850
H1966       H  0.01223710  0.25804777  0.54496720     0.27850
H1967       H  0.99784247  0.22250516  0.57415999     0.18440
H1968       H  0.07506073  0.22239410  0.64880465     0.18450
C1969       C  0.60621703  0.39305568  0.28957693    -0.07390
C1970       C  0.58329140  0.39394833  0.26987962    -0.18510
C1971       C  0.58594007  0.38311444  0.24181540     0.09810
C1972       C  0.61317104  0.37330694  0.23167948    -0.07310
C1973       C  0.63685413  0.37419035  0.25102807    -0.18550
C1974       C  0.63352887  0.38346314  0.27995607     0.09840
S1975       S  0.55273470  0.37841265  0.22194666    -0.33510
S1976       S  0.66463672  0.38227583  0.30344529    -0.33520
H1977       H  0.65515975  0.40408123  0.32268670     0.27850
H1978       H  0.53940083  0.36346211  0.24464491     0.27850
H1979       H  0.56225116  0.40109297  0.27708927     0.18440
H1980       H  0.65779496  0.36626075  0.24405353     0.18450
C1981       C  0.53569154  0.25767156  0.13649538    -0.07390
C1982       C  0.50821815  0.26521612  0.14678319    -0.18510
C1983       C  0.48750477  0.24403390  0.15290869     0.09810
C1984       C  0.49348645  0.21433466  0.14728290    -0.07310
C1985       C  0.52131794  0.20655842  0.13779330    -0.18550
C1986       C  0.54261712  0.22791645  0.13277623     0.09840
S1987       S  0.45389585  0.25632445  0.16859613    -0.33510
S1988       S  0.57795772  0.21721997  0.12005690    -0.33520
H1989       H  0.57268466  0.18716073  0.11904499     0.27850
H1990       H  0.44891910  0.23093611  0.18462544     0.27850
H1991       H  0.50310743  0.28784852  0.15094892     0.18440
H1992       H  0.52591464  0.18394910  0.13311083     0.18450
C1993       C  0.51591609  0.37248861  0.14257348    -0.07390
C1994       C  0.49374650  0.35646783  0.12938664    -0.18510
C1995       C  0.46528234  0.36668109  0.12886989     0.09810
C1996       C  0.45813117  0.39262114  0.14392261    -0.07310
C1997       C  0.48098082  0.41025738  0.15398416    -0.18550
C1998       C  0.50981948  0.40076011  0.15299689     0.09840
S1999       S  0.43913033  0.34478246  0.10976903    -0.33510
S2000       S  0.53695032  0.42540703  0.16678397    -0.33520
H2001       H  0.56161757  0.40859429  0.16115659     0.27850
H2002       H  0.42206030  0.36862957  0.10130392     0.27850
H2003       H  0.49864436  0.33564900  0.11942719     0.18440
H2004       H  0.47620411  0.43069352  0.16474816     0.18450
C2005       C  0.60829304  0.25554014  0.05881386    -0.07390
C2006       C  0.63579598  0.24443475  0.05206441    -0.18510
C2007       C  0.63973143  0.22410576  0.02972316     0.09810
C2008       C  0.61529106  0.21235962  0.01540052    -0.07310
C2009       C  0.58788218  0.22388741  0.02195850    -0.18550
C2010       C  0.58423018  0.24571121  0.04275234     0.09840
S2011       S  0.67640697  0.21537208  0.01993234    -0.33510
S2012       S  0.54838741  0.26028630  0.04721288    -0.33520
H2013       H  0.55020098  0.26156686  0.07738481     0.27850
H2014       H  0.67342002  0.22620703  0.99165439     0.27850
H2015       H  0.65463518  0.25294936  0.06313496     0.18440
H2016       H  0.56903903  0.21643419  0.01016519     0.18450
C2017       C  0.24940400  0.12221775  0.71904152    -0.07390
C2018       C  0.25620807  0.13775084  0.74437841    -0.18510
C2019       C  0.23516795  0.14410966  0.76535567     0.09810
C2020       C  0.20690520  0.13257893  0.76244418    -0.07310
C2021       C  0.20042234  0.11663618  0.73707046    -0.18550
C2022       C  0.22070842  0.11270633  0.71492442     0.09840
S2023       S  0.24575397  0.16808442  0.79433064    -0.33510
S2024       S  0.20829848  0.09534171  0.68217442    -0.33520
H2025       H  0.22152109  0.11491463  0.66321493     0.27850
H2026       H  0.22248732  0.18727233  0.78966844     0.27850
H2027       H  0.27778348  0.14649640  0.74707631     0.18440
H2028       H  0.17891842  0.10793631  0.73382541     0.18450
C2029       C  0.14151226  0.04171289  0.76173588    -0.07390
C2030       C  0.11553784  0.03712669  0.74702604    -0.18510
C2031       C  0.11330517  0.01699912  0.72454591     0.09810
C2032       C  0.13798608  0.00169032  0.71488723    -0.07310
C2033       C  0.16447327  0.00717034  0.72871405    -0.18550
C2034       C  0.16661351  0.02691592  0.75184127     0.09840
S2035       S  0.07756877  0.00841869  0.71282044    -0.33510
S2036       S  0.20197181  0.03207998  0.76732459    -0.33520
H2037       H  0.19394981  0.01980323  0.79396388     0.27850
H2038       H  0.06718634  0.03714600  0.71428351     0.27850
H2039       H  0.09622359  0.04823338  0.75410193     0.18440
H2040       H  0.18352406  0.99523292  0.72213394     0.18450
C2041       C  0.12855019  0.25936112  0.72111259    -0.07390
C2042       C  0.14609793  0.23563737  0.71392630    -0.18510
C2043       C  0.15099186  0.21359494  0.73391657     0.09810
C2044       C  0.13998737  0.21656056  0.76227793    -0.07310
C2045       C  0.12424284  0.24141960  0.76999715    -0.18550
C2046       C  0.11773167  0.26254112  0.74944257     0.09840
S2047       S  0.17088668  0.18228260  0.72170087    -0.33510
S2048       S  0.09492061  0.29284496  0.75932930    -0.33520
H2049       H  0.09330628  0.28687652  0.78914096     0.27850
H2050       H  0.15126754  0.16175849  0.73226383     0.27850
H2051       H  0.15446625  0.23338507  0.69209547     0.18440
H2052       H  0.11531557  0.24321749  0.79162661     0.18450
C2053       C  0.04083104  0.11072820  0.76371478    -0.07390
C2054       C  0.03104193  0.13807510  0.75500510    -0.18510
C2055       C  0.00716877  0.14091301  0.73723749     0.09810
C2056       C  0.99368411  0.11594232  0.72600731    -0.07310
C2057       C  0.00211902  0.08848242  0.73582215    -0.18550
C2058       C  0.02518003  0.08553336  0.75537132     0.09840
S2059       S  0.99374556  0.17696794  0.73104198    -0.33510
S2060       S  0.03314352  0.04913310  0.76743126    -0.33520
H2061       H  0.05750364  0.05465703  0.78440312     0.27850
H2062       H  0.96524979  0.16817193  0.73557497     0.27850
H2063       H  0.04163942  0.15761046  0.76283055     0.18440
H2064       H  0.99131702  0.06927995  0.72754469     0.18450
C2065       C  0.74807909  0.71374585  0.61607392    -0.07390
C2066       C  0.72964245  0.71761662  0.63974385    -0.18510
C2067       C  0.70839072  0.73887769  0.63979917     0.09810
C2068       C  0.70425514  0.75643125  0.61501415    -0.07310
C2069       C  0.72263091  0.75281480  0.59116339    -0.18550
C2070       C  0.74453412  0.73155064  0.59131946     0.09840
S2071       S  0.68877576  0.74348826  0.67325902    -0.33510
S2072       S  0.76672860  0.72679978  0.55944603    -0.33520
H2073       H  0.75319211  0.74799808  0.54226582     0.27850
H2074       H  0.69385166  0.77350937  0.67460659     0.27850
H2075       H  0.73256108  0.70474466  0.65911443     0.18440
H2076       H  0.71938526  0.76625474  0.57226498     0.18450
C2077       C  0.75251261  0.54984434  0.64766227    -0.07390
C2078       C  0.75545797  0.53099155  0.62389034    -0.18510
C2079       C  0.73954210  0.50541520  0.62209081     0.09810
C2080       C  0.72025752  0.49871415  0.64453962    -0.07310
C2081       C  0.71720398  0.51763623  0.66823338    -0.18550
C2082       C  0.73245758  0.54358163  0.66954754     0.09840
S2083       S  0.74486831  0.48223122  0.59100987    -0.33510
S2084       S  0.72366727  0.56830322  0.69839632    -0.33520
H2085       H  0.72968374  0.59375007  0.68291049     0.27850
H2086       H  0.74050357  0.45636908  0.60632343     0.27850
H2087       H  0.77014593  0.53634565  0.60654640     0.18440
H2088       H  0.70171575  0.51285124  0.68514149     0.18450
C2089       C  0.75171555  0.64301567  0.72210216    -0.07390
C2090       C  0.73009923  0.66421342  0.72371841    -0.18510
C2091       C  0.70658553  0.66165103  0.74275122     0.09810
C2092       C  0.70322152  0.63628936  0.75986444    -0.07310
C2093       C  0.72541770  0.61533254  0.75861298    -0.18550
C2094       C  0.74977179  0.61882101  0.74079221     0.09840
S2095       S  0.68287031  0.69236654  0.74595144    -0.33510
S2096       S  0.77820637  0.59229989  0.74403172    -0.33520
H2097       H  0.79995595  0.61327717  0.74309469     0.27850
H2098       H  0.70065184  0.71283539  0.73226015     0.27850
H2099       H  0.73166408  0.68305752  0.70990291     0.18440
H2100       H  0.72431157  0.59635353  0.77232950     0.18450
C2101       C  0.70365926  0.64394614  0.50062391    -0.07390
C2102       C  0.73147017  0.65385474  0.49331806    -0.18510
C2103       C  0.75333781  0.65638780  0.51408955     0.09810
C2104       C  0.74747785  0.64912237  0.54315964    -0.07310
C2105       C  0.71926224  0.64043025  0.55056474    -0.18550
C2106       C  0.69745922  0.63782368  0.52987602     0.09840
S2107       S  0.78835355  0.66768664  0.50172643    -0.33510
S2108       S  0.66208871  0.62786322  0.54269264    -0.33520
H2109       H  0.64775121  0.64935747  0.52665907     0.27850
H2110       H  0.80154392  0.64172493  0.51048913     0.27850
H2111       H  0.73659253  0.65885664  0.47100643     0.18440
H2112       H  0.71397168  0.63535720  0.57282459     0.18450
C2113       C  0.74419271  0.21087965  0.13137288    -0.07390
C2114       C  0.72860134  0.21921247  0.15596709    -0.18510
C2115       C  0.70672451  0.24001229  0.15421490     0.09810
C2116       C  0.69949619  0.25222966  0.12694937    -0.07310
C2117       C  0.71363614  0.24226966  0.10207772    -0.18550
C2118       C  0.73575758  0.22168597  0.10381230     0.09840
S2119       S  0.69088215  0.25147868  0.18808953    -0.33510
S2120       S  0.75256773  0.20962440  0.07039808    -0.33520
H2121       H  0.73732541  0.22780221  0.05132596     0.27850
H2122       H  0.69509024  0.28119569  0.18273612     0.27850
H2123       H  0.73480283  0.21101667  0.17705074     0.18440
H2124       H  0.70751311  0.25093657  0.08120125     0.18450
C2125       C  0.70188243  0.11198223  0.01571012    -0.07390
C2126       C  0.72776352  0.09704494  0.00997766    -0.18510
C2127       C  0.75172735  0.09953826  0.02819073     0.09810
C2128       C  0.75035506  0.11787076  0.05289355    -0.07310
C2129       C  0.72345829  0.13018068  0.06034745    -0.18550
C2130       C  0.69915894  0.12695709  0.04240072     0.09840
S2131       S  0.78382312  0.08058647  0.01689903    -0.33510
S2132       S  0.66492003  0.13935444  0.05630191    -0.33520
H2133       H  0.66051499  0.16018078  0.03492078     0.27850
H2134       H  0.78540536  0.06420834  0.04249199     0.27850
H2135       H  0.73010380  0.08461886  0.99009958     0.18440
H2136       H  0.72133467  0.14260922  0.08025100     0.18450
C2137       C  0.75683519  0.04168239  0.13340240    -0.07390
C2138       C  0.74840877  0.03484760  0.10481026    -0.18510
C2139       C  0.72555296  0.01588313  0.09907939     0.09810
C2140       C  0.71021201  0.00401743  0.12240197    -0.07310
C2141       C  0.71842466  0.01095762  0.15095122    -0.18550
C2142       C  0.74166974  0.02933915  0.15672136     0.09840
S2143       S  0.71544968  0.00969040  0.06185752    -0.33510
S2144       S  0.74944873  0.03779828  0.19405917    -0.33520
H2145       H  0.77695964  0.02475902  0.19310728     0.27850
H2146       H  0.71292736  0.97944626  0.06452731     0.27850
H2147       H  0.75977636  0.04432360  0.08669138     0.18440
H2148       H  0.70649865  0.00198665  0.16900113     0.18450
C2149       C  0.13467987  0.54554020  0.37524424    -0.07390
C2150       C  0.11203050  0.52602352  0.36925671    -0.18510
C2151       C  0.11647156  0.49588362  0.37114059     0.09810
C2152       C  0.14422617  0.48556043  0.37843538    -0.07310
C2153       C  0.16451235  0.50523731  0.38961563    -0.18550
C2154       C  0.16006521  0.53503771  0.38798278     0.09840
S2155       S  0.08758782  0.47205114  0.36025795    -0.33510
S2156       S  0.18789443  0.55870729  0.40127606    -0.33520
H2157       H  0.16979465  0.58313202  0.40431118     0.27850
H2158       H  0.09162384  0.45257091  0.38320939     0.27850
H2159       H  0.09198306  0.53402463  0.36008160     0.18440
H2160       H  0.18430273  0.49742722  0.39911543     0.18450
C2161       C  0.22604866  0.63500036  0.37647291    -0.07390
C2162       C  0.23022605  0.62122613  0.40317019    -0.18510
C2163       C  0.25830164  0.61643997  0.41442799     0.09810
C2164       C  0.28289421  0.62625440  0.39880531    -0.07310
C2165       C  0.27808420  0.64381607  0.37460586    -0.18550
C2166       C  0.25034025  0.64834076  0.36354651     0.09840
S2167       S  0.26214165  0.59649669  0.44779986    -0.33510
S2168       S  0.24775857  0.67232735  0.33333649    -0.33520
H2169       H  0.22592155  0.68897313  0.34669597     0.27850
H2170       H  0.23262378  0.59090805  0.45225609     0.27850
H2171       H  0.21160179  0.61318078  0.41458601     0.18440
H2172       H  0.29628378  0.65274696  0.36292846     0.18450
C2173       C  0.21419744  0.65972941  0.26874621    -0.07390
C2174       C  0.22644588  0.63374171  0.25863084    -0.18510
C2175       C  0.24679581  0.63350262  0.23655723     0.09810
C2176       C  0.25575764  0.66007492  0.22446671    -0.07310
C2177       C  0.24533400  0.68634948  0.23608473    -0.18550
C2178       C  0.22433480  0.68645264  0.25802900     0.09840
S2179       S  0.26087378  0.59888993  0.22399295    -0.33510
S2180       S  0.20933394  0.72083071  0.26917954    -0.33520
H2181       H  0.20978003  0.71487985  0.29892288     0.27850
H2182       H  0.24496695  0.58094601  0.24262557     0.27850
H2183       H  0.21920037  0.61330410  0.26754322     0.18440
H2184       H  0.25267100  0.70675404  0.22741113     0.18450
C2185       C  0.12547576  0.54885315  0.26091818    -0.07390
C2186       C  0.12978929  0.55874132  0.23250584    -0.18510
C2187       C  0.13766296  0.53991871  0.21005341     0.09810
C2188       C  0.14051424  0.50983888  0.21543680    -0.07310
C2189       C  0.13703651  0.49983187  0.24384933    -0.18550
C2190       C  0.12954816  0.51893787  0.26646993     0.09840
S2191       S  0.14417123  0.55598405  0.17507289    -0.33510
S2192       S  0.12675293  0.50389290  0.30187909    -0.33520
H2193       H  0.09875177  0.51501029  0.30620878     0.27850
H2194       H  0.16478700  0.53538125  0.16605841     0.27850
H2195       H  0.12767079  0.58168576  0.22776823     0.18440
H2196       H  0.13888411  0.47680688  0.24827406     0.18450
C2197       C  0.03753670  0.63390538  0.25745221    -0.07390
C2198       C  0.03184067  0.60581799  0.24660932    -0.18510
C2199       C  0.01131028  0.60087250  0.22457279     0.09810
C2200       C  0.99585266  0.62454617  0.21257288    -0.07310
C2201       C  0.00208780  0.65261744  0.22285880    -0.18550
C2202       C  0.02234564  0.65756889  0.24498390     0.09840
S2203       S  0.00622881  0.56384745  0.21274235    -0.33510
S2204       S  0.02710692  0.69471202  0.25647014    -0.33520
H2205       H  0.05745195  0.69331852  0.25587647     0.27850
H2206       H  0.00109025  0.57065306  0.18358475     0.27850
H2207       H  0.04311154  0.58734644  0.25573562     0.18440
H2208       H  0.99041709  0.67100230  0.21409163     0.18450
C2209       C  0.11678852  0.76227806  0.22721780    -0.07390
C2210       C  0.11098904  0.73403757  0.21737823    -0.18510
C2211       C  0.11618538  0.71001381  0.23509428     0.09810
C2212       C  0.12663769  0.71450893  0.26364487    -0.07310
C2213       C  0.13482222  0.74266973  0.27214066    -0.18550
C2214       C  0.13047686  0.76625305  0.25404788     0.09840
S2215       S  0.11034087  0.67454350  0.21944440    -0.33510
S2216       S  0.14426940  0.80072211  0.26553174    -0.33520
H2217       H  0.11833366  0.81516393  0.25885324     0.27850
H2218       H  0.13516472  0.66222096  0.23212179     0.27850
H2219       H  0.10303494  0.73063771  0.19552910     0.18440
H2220       H  0.14416672  0.74668011  0.29332466     0.18450
C2221       C  0.12178949  0.72506473  0.00086360    -0.07390
C2222       C  0.10945019  0.71299167  0.02574706    -0.18510
C2223       C  0.10174085  0.73016777  0.04944583     0.09810
C2224       C  0.10502525  0.76061536  0.04776053    -0.07310
C2225       C  0.11622509  0.77286026  0.02233257    -0.18550
C2226       C  0.12508291  0.75543271  0.99904776     0.09840
S2227       S  0.08872615  0.71123520  0.08098396    -0.33510
S2228       S  0.14083703  0.77341481  0.96833367    -0.33520
H2229       H  0.13346877  0.75237334  0.94764938     0.27850
H2230       H  0.08078584  0.73540893  0.09747148     0.27850
H2231       H  0.10651597  0.68966823  0.02705527     0.18440
H2232       H  0.11965638  0.79611018  0.02121179     0.18450
C2233       C  0.20650212  0.76016311  0.14783428    -0.07390
C2234       C  0.21278981  0.74839702  0.12036384    -0.18510
C2235       C  0.23632796  0.72987643  0.11595856     0.09810
C2236       C  0.25321956  0.72109970  0.13979944    -0.07310
C2237       C  0.24800720  0.73412097  0.16698659    -0.18550
C2238       C  0.22477600  0.75338111  0.17131020     0.09840
S2239       S  0.24558808  0.72113884  0.07905588    -0.33510
S2240       S  0.21898597  0.76771697  0.20721564    -0.33520
H2241       H  0.18863949  0.76656851  0.20586755     0.27850
H2242       H  0.27562074  0.72229860  0.08363852     0.27850
H2243       H  0.19986852  0.75464846  0.10179087     0.18440
H2244       H  0.26189799  0.72887667  0.18505722     0.18450
C2245       C  0.99676621  0.71486746  0.13587155    -0.07390
C2246       C  0.01060786  0.72246481  0.16175333    -0.18510
C2247       C  0.03174555  0.74398729  0.16249706     0.09810
C2248       C  0.04002452  0.75793895  0.13667043    -0.07310
C2249       C  0.02604144  0.75052491  0.11073078    -0.18550
C2250       C  0.00458605  0.72910476  0.10998846     0.09840
S2251       S  0.04426249  0.75580815  0.19740836    -0.33510
S2252       S  0.98588247  0.72225570  0.07639828    -0.33520
H2253       H  0.00360553  0.73927196  0.05855506     0.27850
H2254       H  0.04476735  0.72767479  0.20888111     0.27850
H2255       H  0.00388760  0.71249222  0.18183786     0.18440
H2256       H  0.03188602  0.76174791  0.09104907     0.18450
C2257       C  0.63434275  0.22561055  0.36773763    -0.07390
C2258       C  0.63520307  0.25021623  0.34984058    -0.18510
C2259       C  0.62728325  0.27789698  0.35982774     0.09810
C2260       C  0.61712556  0.28175953  0.38864083    -0.07310
C2261       C  0.61814412  0.25749320  0.40717764    -0.18550
C2262       C  0.62732834  0.22989467  0.39730197     0.09840
S2263       S  0.62919086  0.30668819  0.33363398    -0.33510
S2264       S  0.63047263  0.20133874  0.42362216    -0.33520
H2265       H  0.65289427  0.18651918  0.40917523     0.27850
H2266       H  0.64718481  0.32401782  0.35120706     0.27850
H2267       H  0.64083969  0.24781628  0.32717435     0.18440
H2268       H  0.61152673  0.25989812  0.42956531     0.18450
C2269       C  0.47517663  0.15983423  0.38903149    -0.07390
C2270       C  0.49524228  0.18021508  0.39895625    -0.18510
C2271       C  0.52454932  0.17386727  0.39850745     0.09810
C2272       C  0.53384731  0.14756926  0.38575679    -0.07310
C2273       C  0.51370740  0.12521190  0.38130640    -0.18550
C2274       C  0.48407882  0.13102027  0.38348662     0.09840
S2275       S  0.54931211  0.20162580  0.41036537    -0.33510
S2276       S  0.45925104  0.10155089  0.37717834    -0.33520
H2277       H  0.43503800  0.11480151  0.38994689     0.27850
H2278       H  0.57252915  0.18217057  0.41350350     0.27850
H2279       H  0.48824473  0.20181369  0.40529442     0.18440
H2280       H  0.52071328  0.10438404  0.37274773     0.18450
C2281       C  0.58755842  0.26025355  0.22506192    -0.07390
C2282       C  0.58908015  0.23175345  0.21445164    -0.18510
C2283       C  0.58959084  0.20825127  0.23329875     0.09810
C2284       C  0.59017527  0.21345134  0.26351929    -0.07310
C2285       C  0.58529590  0.24176388  0.27401005    -0.18550
C2286       C  0.58398189  0.26527975  0.25501583     0.09840
S2287       S  0.59006994  0.17233983  0.21739952    -0.33510
S2288       S  0.58036969  0.30120590  0.27039596    -0.33520
H2289       H  0.60176474  0.31380384  0.25298062     0.27850
H2290       H  0.57560775  0.15897000  0.24052025     0.27850
H2291       H  0.59055838  0.22783241  0.19130993     0.18440
H2292       H  0.58501195  0.24597825  0.29713670     0.18450
C2293       C  0.74863269  0.11628420  0.20975045    -0.07390
C2294       C  0.71981977  0.11643980  0.20026725    -0.18510
C2295       C  0.69687146  0.11404528  0.22002408     0.09810
C2296       C  0.70270646  0.11099091  0.25007179    -0.07310
C2297       C  0.73151684  0.10895428  0.25912336    -0.18550
C2298       C  0.75428808  0.11179400  0.23958457     0.09840
S2299       S  0.66076406  0.11553450  0.20552107    -0.33510
S2300       S  0.79007697  0.11019314  0.25460308    -0.33520
H2301       H  0.80103365  0.09411179  0.23117397     0.27850
H2302       H  0.64940676  0.09684285  0.22645141     0.27850
H2303       H  0.71510153  0.11965721  0.17750437     0.18440
H2304       H  0.73650994  0.10675914  0.28197000     0.18450
C2305       C  0.52643337  0.12613250  0.27494757    -0.07390
C2306       C  0.51721726  0.15445958  0.26837362    -0.18510
C2307       C  0.49710265  0.15970961  0.24646608     0.09810
C2308       C  0.48600046  0.13617888  0.23019111    -0.07310
C2309       C  0.49518877  0.10790333  0.23668801    -0.18550
C2310       C  0.51513329  0.10255753  0.25872849     0.09840
S2311       S  0.48754615  0.19694971  0.23955765    -0.33510
S2312       S  0.52551533  0.06525325  0.26413356    -0.33520
H2313       H  0.55512576  0.07135794  0.26457826     0.27850
H2314       H  0.45979221  0.19364226  0.25151184     0.27850
H2315       H  0.52574295  0.17281756  0.28043479     0.18440
H2316       H  0.48653899  0.08964364  0.22461680     0.18450
C2317       C  0.60467120  0.00716647  0.21856196    -0.07390
C2318       C  0.61341823  0.99852958  0.24625205    -0.18510
C2319       C  0.61908207  0.01908121  0.26803951     0.09810
C2320       C  0.61529578  0.04901434  0.26201993    -0.07310
C2321       C  0.60497802  0.05728811  0.23466005    -0.18550
C2322       C  0.59993270  0.03685736  0.21289363     0.09840
S2323       S  0.63104410  0.00641667  0.30306044    -0.33510
S2324       S  0.58800766  0.05018853  0.17819812    -0.33520
H2325       H  0.57308680  0.02489524  0.17034889     0.27850
H2326       H  0.62825699  0.97646023  0.29756637     0.27850
H2327       H  0.61753000  0.97572109  0.25021965     0.18440
H2328       H  0.60100211  0.07999618  0.23001952     0.18450
C2329       C  0.13466078  0.22507099  0.39628019    -0.07390
C2330       C  0.13227311  0.22966222  0.36621150    -0.18510
C2331       C  0.13392423  0.25778841  0.35435692     0.09810
C2332       C  0.13718437  0.28214310  0.37296052    -0.07310
C2333       C  0.13713289  0.27741715  0.40297550    -0.18550
C2334       C  0.13704434  0.24961034  0.41472012     0.09840
S2335       S  0.13142493  0.26106116  0.31560505    -0.33510
S2336       S  0.14134126  0.24652022  0.45345169    -0.33520
H2337       H  0.14282636  0.27623406  0.46052018     0.27850
H2338       H  0.11561756  0.28720189  0.31646991     0.27850
H2339       H  0.12974990  0.21118346  0.35179383     0.18440
H2340       H  0.13918608  0.29567660  0.41765553     0.18450
C2341       C  0.21970760  0.12906104  0.38612309    -0.07390
C2342       C  0.24309133  0.10948969  0.38586996    -0.18510
C2343       C  0.27032047  0.11783828  0.37585654     0.09810
C2344       C  0.27478351  0.14672083  0.36671326    -0.07310
C2345       C  0.25066019  0.16478894  0.36288568    -0.18550
C2346       C  0.22313598  0.15609184  0.37190765     0.09840
S2347       S  0.29902014  0.09128421  0.37714903    -0.33510
S2348       S  0.19392434  0.18114770  0.36557578    -0.33520
H2349       H  0.17360591  0.15930085  0.35926172     0.27850
H2350       H  0.31596610  0.10446308  0.35563434     0.27850
H2351       H  0.24077598  0.08808377  0.39519186     0.18440
H2352       H  0.25353227  0.18673217  0.35503515     0.18450
C2353       C  0.10783635  0.20408907  0.50511613    -0.07390
C2354       C  0.09475459  0.23106900  0.49881031    -0.18510
C2355       C  0.09794514  0.25541611  0.51703628     0.09810
C2356       C  0.11210555  0.25254852  0.54406943    -0.07310
C2357       C  0.12209959  0.22468044  0.55187841    -0.18550
C2358       C  0.12047552  0.20082368  0.53284196     0.09840
S2359       S  0.08589974  0.28980460  0.50297856    -0.33510
S2360       S  0.13439276  0.16671911  0.54559990    -0.33520
H2361       H  0.15971277  0.16942992  0.52915304     0.27850
H2362       H  0.11252766  0.30362229  0.50817503     0.27850
H2363       H  0.08414560  0.23413414  0.47811258     0.18440
H2364       H  0.13207572  0.22144248  0.57286578     0.18450
C2365       C  0.24782075  0.12468965  0.54723440    -0.07390
C2366       C  0.24070185  0.10122112  0.52923093    -0.18510
C2367       C  0.22275134  0.10490439  0.50528483     0.09810
C2368       C  0.21060781  0.13257135  0.49952273    -0.07310
C2369       C  0.21827075  0.15618196  0.51711344    -0.18550
C2370       C  0.23681664  0.15267957  0.54064807     0.09840
S2371       S  0.21814549  0.07384385  0.48191691    -0.33510
S2372       S  0.24627601  0.18516060  0.56041277    -0.33520
H2373       H  0.27603402  0.18046086  0.55698095     0.27850
H2374       H  0.22676197  0.08940286  0.45732366     0.27850
H2375       H  0.24952410  0.07984665  0.53354719     0.18440
H2376       H  0.20970943  0.17761479  0.51258690     0.18450
C2377       C  0.98942929  0.12261828  0.53617993    -0.07390
C2378       C  0.00119329  0.15037166  0.53106136    -0.18510
C2379       C  0.02049038  0.15514107  0.50832850     0.09810
C2380       C  0.02878893  0.13164162  0.49078885    -0.07310
C2381       C  0.01598173  0.10440442  0.49465135    -0.18550
C2382       C  0.99581410  0.09979069  0.51652372     0.09840
S2383       S  0.03524941  0.19080258  0.50262774    -0.33510
S2384       S  0.97936447  0.06441008  0.51780942    -0.33520
H2385       H  0.95108608  0.07570586  0.51792797     0.27850
H2386       H  0.02267250  0.20429292  0.52692714     0.27850
H2387       H  0.99566117  0.16841015  0.54514631     0.18440
H2388       H  0.02213897  0.08640796  0.48068119     0.18450
C2389       C  0.14638467  0.04154400  0.49612206    -0.07390
C2390       C  0.15122674  0.05147675  0.52451735    -0.18510
C2391       C  0.15284564  0.03234544  0.54803325     0.09810
C2392       C  0.15084443  0.00192662  0.54307817    -0.07310
C2393       C  0.14731797  0.99195170  0.51445775    -0.18550
C2394       C  0.14386585  0.01132516  0.49131089     0.09840
S2395       S  0.15669024  0.04912437  0.58329042    -0.33510
S2396       S  0.13230005  0.99626189  0.45726567    -0.33520
H2397       H  0.11088444  0.01735953  0.45242901     0.27850
H2398       H  0.16153900  0.02418221  0.59943209     0.27850
H2399       H  0.15251123  0.07465915  0.52860368     0.18440
H2400       H  0.14474330  0.96887002  0.51041810     0.18450
C2401       C  0.87554156  0.79067237  0.63140015    -0.07390
C2402       C  0.85624364  0.78331422  0.65349063    -0.18510
C2403       C  0.84716119  0.75449954  0.65804612     0.09810
C2404       C  0.85818673  0.73127310  0.64061667    -0.07310
C2405       C  0.88006208  0.73841244  0.62062263    -0.18550
C2406       C  0.88901298  0.76741152  0.61619960     0.09840
S2407       S  0.82016611  0.74970079  0.68557497    -0.33510
S2408       S  0.91821439  0.77325154  0.59117536    -0.33520
H2409       H  0.92848218  0.79860953  0.60487035     0.27850
H2410       H  0.83549190  0.72691256  0.69829008     0.27850
H2411       H  0.84704200  0.80044230  0.66656928     0.18440
H2412       H  0.88976117  0.72139627  0.60754313     0.18450
C2413       C  0.77900210  0.86499335  0.62926657    -0.07390
C2414       C  0.75886643  0.88409946  0.61670719    -0.18510
C2415       C  0.72914397  0.88226039  0.62317392     0.09810
C2416       C  0.71892972  0.85974247  0.64120553    -0.07310
C2417       C  0.73972521  0.84312924  0.65618855    -0.18550
C2418       C  0.76927099  0.84580999  0.65073043     0.09840
S2419       S  0.70579673  0.90979864  0.60877998    -0.33510
S2420       S  0.79335735  0.82414307  0.67213319    -0.33520
H2421       H  0.81605613  0.84439437  0.67215396     0.27850
H2422       H  0.68716049  0.91019720  0.63283992     0.27850
H2423       H  0.76626850  0.90029731  0.60150518     0.18440
H2424       H  0.73299715  0.82680696  0.67156613     0.18450
C2425       C  0.96413576  0.88702936  0.62477441    -0.07390
C2426       C  0.97462124  0.91281929  0.61289606    -0.18510
C2427       C  0.00363278  0.92130198  0.61478181     0.09810
C2428       C  0.02444428  0.90312999  0.62857268    -0.07310
C2429       C  0.01409026  0.87722175  0.64122102    -0.18550
C2430       C  0.98438057  0.86893118  0.63929128     0.09840
S2431       S  0.01276177  0.95649247  0.59989408    -0.33510
S2432       S  0.97410794  0.83468523  0.65486780    -0.33520
H2433       H  0.94406166  0.83892381  0.65403533     0.27850
H2434       H  0.98452119  0.96711712  0.59586076     0.27850
H2435       H  0.95982893  0.92678196  0.60159176     0.18440
H2436       H  0.02923240  0.86309148  0.65221594     0.18450
C2437       C  0.88802704  0.97610152  0.62354462    -0.07390
C2438       C  0.86572793  0.99478277  0.61432373    -0.18510
C2439       C  0.86890946  0.02522897  0.61567673     0.09810
C2440       C  0.89513803  0.03707958  0.62607330    -0.07310
C2441       C  0.91634279  0.01808064  0.63681737    -0.18550
C2442       C  0.91284344  0.98812517  0.63630787     0.09840
S2443       S  0.83990659  0.04718152  0.60158240    -0.33510
S2444       S  0.94114104  0.96635694  0.65202530    -0.33520
H2445       H  0.92312456  0.94337394  0.66045246     0.27850
H2446       H  0.84711717  0.07291210  0.61627759     0.27850
H2447       H  0.84646018  0.98565411  0.60454004     0.18440
H2448       H  0.93645977  0.02640451  0.64504378     0.18450
C2449       C  0.88143624  0.11751015  0.28606072    -0.07390
C2450       C  0.86647928  0.14234340  0.27672223    -0.18510
C2451       C  0.85712814  0.14542793  0.24782267     0.09810
C2452       C  0.86253278  0.12302957  0.22718413    -0.07310
C2453       C  0.87869195  0.09885402  0.23602476    -0.18550
C2454       C  0.88886087  0.09625424  0.26473026     0.09840
S2455       S  0.83545533  0.17681338  0.23860114    -0.33510
S2456       S  0.91117917  0.06511411  0.27253409    -0.33520
H2457       H  0.92889105  0.07991328  0.29255069     0.27850
H2458       H  0.83739780  0.19125576  0.26546663     0.27850
H2459       H  0.86040564  0.15865184  0.29257021     0.18440
H2460       H  0.88346519  0.08182321  0.22043872     0.18450
C2461       C  0.78564855  0.12869050  0.35730120    -0.07390
C2462       C  0.76629603  0.10568883  0.36019181    -0.18510
C2463       C  0.73669724  0.10979784  0.35787192     0.09810
C2464       C  0.72562945  0.13783312  0.35206381    -0.07310
C2465       C  0.74495624  0.16119407  0.34954549    -0.18550
C2466       C  0.77486934  0.15700323  0.35269877     0.09840
S2467       S  0.71476538  0.07753628  0.35926849    -0.33510
S2468       S  0.79810433  0.18796154  0.34819075    -0.33520
H2469       H  0.81779703  0.18031805  0.37000905     0.27850
H2470       H  0.70039542  0.08678994  0.38454073     0.27850
H2471       H  0.77416278  0.08402371  0.36400136     0.18440
H2472       H  0.73675879  0.18263477  0.34446152     0.18450
C2473       C  0.96711485  0.11776979  0.37309920    -0.07390
C2474       C  0.98469865  0.09426708  0.36406759    -0.18510
C2475       C  0.01448311  0.09395946  0.36922339     0.09810
C2476       C  0.02733491  0.11749228  0.38367401    -0.07310
C2477       C  0.01062396  0.14228068  0.38978900    -0.18550
C2478       C  0.98083170  0.14286794  0.38439476     0.09840
S2479       S  0.03499457  0.06289887  0.35738142    -0.33510
S2480       S  0.96174689  0.17564211  0.39401613    -0.33520
H2481       H  0.94502001  0.17576342  0.36852671     0.27850
H2482       H  0.06100889  0.07823504  0.35403030     0.27850
H2483       H  0.97508410  0.07522434  0.35414073     0.18440
H2484       H  0.02056314  0.16080478  0.40040395     0.18450
C2485       C  0.89215286  0.12431529  0.47124067    -0.07390
C2486       C  0.89114034  0.10210919  0.49174475    -0.18510
C2487       C  0.89234413  0.10813744  0.52141419     0.09810
C2488       C  0.89642664  0.13718633  0.53118633    -0.07310
C2489       C  0.89557688  0.15954952  0.51050761    -0.18550
C2490       C  0.89341999  0.15346418  0.48079569     0.09840
S2491       S  0.88885485  0.07739814  0.54506893    -0.33510
S2492       S  0.89444214  0.18375053  0.45624860    -0.33520
H2493       H  0.91020235  0.16935645  0.43448431     0.27850
H2494       H  0.86965740  0.09190451  0.56385097     0.27850
H2495       H  0.88906094  0.07974754  0.48454127     0.18440
H2496       H  0.89831430  0.18193929  0.51730426     0.18450
C2497       C  0.87878928  0.99494564  0.45585136    -0.07390
C2498       C  0.89263475  0.00287665  0.48199126    -0.18510
C2499       C  0.89176783  0.98480547  0.50655398     0.09810
C2500       C  0.87554554  0.95878775  0.50560371    -0.07310
C2501       C  0.85925127  0.95296454  0.48069354    -0.18550
C2502       C  0.86197115  0.96924771  0.45549213     0.09840
S2503       S  0.91358017  0.99485114  0.53730851    -0.33510
S2504       S  0.84555380  0.95353254  0.42354654    -0.33520
H2505       H  0.83719224  0.97956106  0.41078052     0.27850
H2506       H  0.89112399  0.99054486  0.55724862     0.27850
H2507       H  0.90559523  0.02243885  0.48282139     0.18440
H2508       H  0.84526188  0.93437129  0.48031080     0.18450
C2509       C  0.11679767  0.87687838  0.29701373    -0.07390
C2510       C  0.09506027  0.88048594  0.27645338    -0.18510
C2511       C  0.10063329  0.87717486  0.24697186     0.09810
C2512       C  0.12890736  0.87009184  0.23723954    -0.07310
C2513       C  0.15146139  0.87070345  0.25780165    -0.18550
C2514       C  0.14563375  0.87339285  0.28758477     0.09840
S2515       S  0.06997219  0.88088417  0.22364974    -0.33510
S2516       S  0.17546662  0.86932854  0.31238159    -0.33520
H2517       H  0.16025545  0.85292030  0.33287094     0.27850
H2518       H  0.08558097  0.89720017  0.20330168     0.27850
H2519       H  0.07327779  0.88544561  0.28348062     0.18440
H2520       H  0.17339373  0.86594702  0.25108153     0.18450
C2521       C  0.10232858  0.72731967  0.36928827    -0.07390
C2522       C  0.09638983  0.74723822  0.34733331    -0.18510
C2523       C  0.09889266  0.77691351  0.35166402     0.09810
C2524       C  0.10561668  0.78838705  0.37933671    -0.07310
C2525       C  0.11040888  0.76862161  0.40204856    -0.18550
C2526       C  0.10944971  0.73823737  0.39718690     0.09840
S2527       S  0.09432326  0.79819547  0.31985308    -0.33510
S2528       S  0.11658967  0.71475056  0.42740316    -0.33520
H2529       H  0.09792008  0.69249570  0.41809951     0.27850
H2530       H  0.12094289  0.81223131  0.32423462     0.27850
H2531       H  0.09147075  0.73967383  0.32558995     0.18440
H2532       H  0.11475643  0.77685263  0.42365249     0.18450
C2533       C  0.12679382  0.97506231  0.37768578    -0.07390
C2534       C  0.15177471  0.98789269  0.38888066    -0.18510
C2535       C  0.15435048  0.01831200  0.38981560     0.09810
C2536       C  0.13069878  0.03616253  0.38143603    -0.07310
C2537       C  0.10848533  0.02315762  0.36547867    -0.18550
C2538       C  0.10725494  0.99291112  0.36211811     0.09840
S2539       S  0.18734706  0.03290284  0.40393230    -0.33510
S2540       S  0.07839333  0.97806210  0.34035303    -0.33520
H2541       H  0.09057833  0.95014788  0.33761244     0.27850
H2542       H  0.18850547  0.05422174  0.38226404     0.27850
H2543       H  0.16792235  0.97455787  0.39945939     0.18440
H2544       H  0.09103193  0.03632637  0.35726004     0.18450
C2545       C  0.96365374  0.01256796  0.38094966    -0.07390
C2546       C  0.98958698  0.01811327  0.39574931    -0.18510
C2547       C  0.01193268  0.99779272  0.39643361     0.09810
C2548       C  0.00877019  0.97096803  0.38166115    -0.07310
C2549       C  0.98341688  0.96588163  0.36582384    -0.18550
C2550       C  0.96084452  0.98632742  0.36506006     0.09840
S2551       S  0.04286260  0.00696400  0.41838449    -0.33510
S2552       S  0.92772653  0.97691483  0.34636625    -0.33520
H2553       H  0.93576536  0.94870032  0.33775338     0.27850
H2554       H  0.06246446  0.99315485  0.40003690     0.27850
H2555       H  0.99210836  0.03808023  0.40803773     0.18440
H2556       H  0.98018077  0.94477814  0.35665596     0.18450
C2557       C  0.12402242  0.87801872  0.47940631    -0.07390
C2558       C  0.09962773  0.87366668  0.49689451    -0.18510
C2559       C  0.10047485  0.87921397  0.52670448     0.09810
C2560       C  0.12650548  0.88872040  0.53952672    -0.07310
C2561       C  0.15184857  0.88885832  0.52274104    -0.18550
C2562       C  0.15079518  0.88390238  0.49276118     0.09840
S2563       S  0.06708655  0.87647355  0.54664919    -0.33510
S2564       S  0.18334459  0.88951226  0.47221937    -0.33520
H2565       H  0.17572904  0.87079525  0.44930954     0.27850
H2566       H  0.08014933  0.87236529  0.57386644     0.27850
H2567       H  0.07907860  0.86850726  0.48695444     0.18440
H2568       H  0.17199712  0.89609987  0.53233274     0.18450
C2569       C  0.96818865  0.89094262  0.51804050    -0.07390
C2570       C  0.97964884  0.91715357  0.50802674    -0.18510
C2571       C  0.99812061  0.91771281  0.48429968     0.09810
C2572       C  0.00472049  0.89162473  0.46948051    -0.07310
C2573       C  0.99487938  0.86519658  0.48037587    -0.18550
C2574       C  0.97724472  0.86447942  0.50494171     0.09840
S2575       S  0.01141698  0.95264461  0.47330166    -0.33510
S2576       S  0.96759542  0.82919014  0.51858903    -0.33520
H2577       H  0.96829528  0.83780834  0.54790376     0.27850
H2578       H  0.04030301  0.94342926  0.47099134     0.27850
H2579       H  0.97324432  0.93759332  0.51790865     0.18440
H2580       H  0.00120318  0.84504441  0.46987348     0.18450
C2581       C  0.74373865  0.87508179  0.46873620    -0.07390
C2582       C  0.77164448  0.88124795  0.45893203    -0.18510
C2583       C  0.79606685  0.87732987  0.47622918     0.09810
C2584       C  0.79277092  0.87181369  0.50643472    -0.07310
C2585       C  0.76466053  0.86590310  0.51653096    -0.18550
C2586       C  0.74068226  0.86506106  0.49757061     0.09840
S2587       S  0.82919600  0.87300251  0.45574288    -0.33510
S2588       S  0.70844811  0.84828214  0.51137061    -0.33520
H2589       H  0.69192896  0.84816918  0.48602102     0.27850
H2590       H  0.84788737  0.88919812  0.47290027     0.27850
H2591       H  0.77488301  0.88625649  0.43628662     0.18440
H2592       H  0.76170096  0.85935570  0.53883902     0.18450
C2593       C  0.63352096  0.87778780  0.47106223    -0.07390
C2594       C  0.65239433  0.89344499  0.48905308    -0.18510
C2595       C  0.65130806  0.89030768  0.51925737     0.09810
C2596       C  0.63147073  0.87071212  0.53156045    -0.07310
C2597       C  0.60976537  0.85902342  0.51379709    -0.18550
C2598       C  0.61070038  0.86218563  0.48367799     0.09840
S2599       S  0.67608987  0.91111308  0.54089238    -0.33510
S2600       S  0.58341803  0.84434641  0.46226116    -0.33520
H2601       H  0.58466921  0.86390712  0.43902386     0.27850
H2602       H  0.65869112  0.91055716  0.56584789     0.27850
H2603       H  0.66933582  0.90647747  0.47952801     0.18440
H2604       H  0.59329105  0.84550100  0.52324262     0.18450
C2605       C  0.61656517  0.73039378  0.39597781    -0.07390
C2606       C  0.59330484  0.75007497  0.39391636    -0.18510
C2607       C  0.59791757  0.77977280  0.38784229     0.09810
C2608       C  0.62647188  0.79029623  0.38442905    -0.07310
C2609       C  0.64936249  0.77026253  0.38632696    -0.18550
C2610       C  0.64488699  0.74099676  0.39174665     0.09840
S2611       S  0.56667588  0.80248170  0.38297684    -0.33510
S2612       S  0.67696959  0.71912698  0.39574458    -0.33520
H2613       H  0.67118058  0.70277302  0.37055459     0.27850
H2614       H  0.57476079  0.82222097  0.40467634     0.27850
H2615       H  0.57147495  0.74231963  0.39717364     0.18440
H2616       H  0.67153691  0.77745217  0.38422484     0.18450
C2617       C  0.63260241  0.97880018  0.38165074    -0.07390
C2618       C  0.60398635  0.98683922  0.37486072    -0.18510
C2619       C  0.59609984  0.01613758  0.37037492     0.09810
C2620       C  0.61723607  0.03834983  0.37236080    -0.07310
C2621       C  0.64508811  0.03050602  0.38135368    -0.18550
C2622       C  0.65315939  0.00149431  0.38520820     0.09840
S2623       S  0.55881754  0.02367024  0.36191830    -0.33510
S2624       S  0.69108134  0.99549815  0.39105465    -0.33520
H2625       H  0.69393197  0.97973083  0.36496735     0.27850
H2626       H  0.55846938  0.05124189  0.37525845     0.27850
H2627       H  0.58767908  0.97015358  0.37248386     0.18440
H2628       H  0.66169582  0.04694930  0.38294002     0.18450
C2629       C  0.76421653  0.96203934  0.39087350    -0.07390
C2630       C  0.76462051  0.97811533  0.36527173    -0.18510
C2631       C  0.77667703  0.00595077  0.36428125     0.09810
C2632       C  0.79006122  0.01770046  0.38944904    -0.07310
C2633       C  0.78670117  0.00282546  0.41581122    -0.18550
C2634       C  0.77351910  0.97539517  0.41683538     0.09840
S2635       S  0.77466664  0.02556700  0.33049353    -0.33510
S2636       S  0.77051949  0.95806675  0.45157433    -0.33520
H2637       H  0.74375562  0.94491405  0.44597743     0.27850
H2638       H  0.76600840  0.00218201  0.31279677     0.27850
H2639       H  0.75487817  0.96886831  0.34597823     0.18440
H2640       H  0.79623598  0.01164871  0.43542571     0.18450
C2641       C  0.64209631  0.89268851  0.28964937    -0.07390
C2642       C  0.66662400  0.89765998  0.27272460    -0.18510
C2643       C  0.66495251  0.90075099  0.24273813     0.09810
C2644       C  0.63787195  0.89890072  0.22840644    -0.07310
C2645       C  0.61350158  0.89130461  0.24499538    -0.18550
C2646       C  0.61525657  0.88855412  0.27544432     0.09840
S2647       S  0.69828454  0.90915593  0.22456575    -0.33510
S2648       S  0.58214567  0.88287312  0.29503435    -0.33520
H2649       H  0.58890016  0.90194932  0.31796162     0.27850
H2650       H  0.68858751  0.89952222  0.19764070     0.27850
H2651       H  0.68740116  0.90031656  0.28313929     0.18440
H2652       H  0.59246919  0.89044033  0.23468000     0.18450
C2653       C  0.78282783  0.64418317  0.39397215    -0.07390
C2654       C  0.77326352  0.61699423  0.38348475    -0.18510
C2655       C  0.74377412  0.60927737  0.38437227     0.09810
C2656       C  0.72319987  0.62986145  0.39400991    -0.07310
C2657       C  0.73260085  0.65736270  0.40247609    -0.18550
C2658       C  0.76177254  0.66411843  0.40408112     0.09840
S2659       S  0.73384193  0.57293408  0.37369225    -0.33510
S2660       S  0.76985524  0.69803929  0.42110921    -0.33520
H2661       H  0.78526509  0.68531763  0.44386102     0.27850
H2662       H  0.70448553  0.57887673  0.36846465     0.27850
H2663       H  0.78893845  0.60117008  0.37592500     0.18440
H2664       H  0.71714056  0.67297654  0.41081790     0.18450
C2665       C  0.80064366  0.75412006  0.38588403    -0.07390
C2666       C  0.78850753  0.76461456  0.41192071    -0.18510
C2667       C  0.76887006  0.78767556  0.41248224     0.09810
C2668       C  0.76151968  0.80200957  0.38669210    -0.07310
C2669       C  0.77235914  0.79105459  0.36037887    -0.18550
C2670       C  0.79140533  0.76710969  0.35962903     0.09840
S2671       S  0.75258266  0.79693508  0.44664944    -0.33510
S2672       S  0.80234515  0.75383327  0.32454159    -0.33520
H2673       H  0.80039152  0.72435923  0.33219790     0.27850
H2674       H  0.72432083  0.79595542  0.43540961     0.27850
H2675       H  0.79393375  0.75452152  0.43229481     0.18440
H2676       H  0.76578181  0.80098125  0.34026456     0.18450
C2677       C  0.87765329  0.75914228  0.46485520    -0.07390
C2678       C  0.85036116  0.77149613  0.46921715    -0.18510
C2679       C  0.84280559  0.78377441  0.49576551     0.09810
C2680       C  0.86379120  0.78598829  0.51777254    -0.07310
C2681       C  0.89111033  0.77333513  0.51351618    -0.18550
C2682       C  0.89806203  0.75945433  0.48750181     0.09840
S2683       S  0.80674269  0.79787454  0.49957723    -0.33510
S2684       S  0.93380915  0.74431159  0.48382490    -0.33520
H2685       H  0.93617650  0.75000717  0.45404031     0.27850
H2686       H  0.80204348  0.78435593  0.52639536     0.27850
H2687       H  0.83457182  0.77088360  0.45204403     0.18440
H2688       H  0.90770203  0.77572232  0.52988394     0.18450
C2689       C  0.87444897  0.62266073  0.47385866    -0.07390
C2690       C  0.85191550  0.60333420  0.47990303    -0.18510
C2691       C  0.84291528  0.59822992  0.50857462     0.09810
C2692       C  0.85610960  0.61383665  0.53184573    -0.07310
C2693       C  0.88128349  0.62968943  0.52583757    -0.18550
C2694       C  0.89089236  0.63369160  0.49739308     0.09840
S2695       S  0.81323953  0.57338988  0.51424400    -0.33510
S2696       S  0.92357323  0.65440360  0.49261446    -0.33520
H2697       H  0.93150621  0.64058633  0.46651542     0.27850
H2698       H  0.81139165  0.56273523  0.48567753     0.27850
H2699       H  0.83979422  0.59404077  0.46205903     0.18440
H2700       H  0.89280213  0.64050373  0.54325815     0.18450
C2701       C  0.96252122  0.62944135  0.37068625    -0.07390
C2702       C  0.98271143  0.65129919  0.37607097    -0.18510
C2703       C  0.01234616  0.64662627  0.37230447     0.09810
C2704       C  0.02241014  0.61912601  0.36226040    -0.07310
C2705       C  0.00208188  0.59658277  0.35884778    -0.18550
C2706       C  0.97238339  0.60139612  0.36318142     0.09840
S2707       S  0.03603482  0.67689060  0.37982489    -0.33510
S2708       S  0.94802112  0.57175138  0.35611356    -0.33520
H2709       H  0.92844664  0.57905010  0.37821342     0.27850
H2710       H  0.01581064  0.69876139  0.37330588     0.27850
H2711       H  0.97505650  0.67262190  0.38235478     0.18440
H2712       H  0.00910921  0.57539006  0.35131897     0.18450
C2713       C  0.96670845  0.74714295  0.37610734    -0.07390
C2714       C  0.96463893  0.76768008  0.35399790    -0.18510
C2715       C  0.98107010  0.79288920  0.35427181     0.09810
C2716       C  0.00307114  0.79690418  0.37504684    -0.07310
C2717       C  0.00595371  0.77608504  0.39712600    -0.18550
C2718       C  0.98734185  0.75171502  0.39845816     0.09840
S2719       S  0.96911219  0.82120387  0.33072970    -0.33510
S2720       S  0.99178574  0.72737184  0.42861355    -0.33520
H2721       H  0.97042513  0.70717797  0.42102583     0.27850
H2722       H  0.96396319  0.84028487  0.35404570     0.27850
H2723       H  0.94798040  0.76547180  0.33759849     0.18440
H2724       H  0.02251270  0.77895145  0.41350426     0.18450
C2725       C  0.87592692  0.64584672  0.28715832    -0.07390
C2726       C  0.89429158  0.66677078  0.27534312    -0.18510
C2727       C  0.90263312  0.66613237  0.24623679     0.09810
C2728       C  0.89104802  0.64467421  0.22715836    -0.07310
C2729       C  0.87256145  0.62349377  0.23905190    -0.18550
C2730       C  0.86496346  0.62382351  0.26874318     0.09840
S2731       S  0.93014220  0.69173446  0.23521031    -0.33510
S2732       S  0.84107115  0.59589772  0.28160379    -0.33520
H2733       H  0.82953456  0.61186994  0.30492897     0.27850
H2734       H  0.93836915  0.70155587  0.26292875     0.27850
H2735       H  0.90306725  0.68340562  0.28949045     0.18440
H2736       H  0.86414041  0.60641097  0.22520899     0.18450
C2737       C  0.86714900  0.97375062  0.14423810    -0.07390
C2738       C  0.89013370  0.99064300  0.13364541    -0.18510
C2739       C  0.88503204  0.01839120  0.12179586     0.09810
C2740       C  0.85632673  0.02857924  0.11952747    -0.07310
C2741       C  0.83372781  0.01034312  0.12722734    -0.18550
C2742       C  0.83868810  0.98456681  0.14168536     0.09840
S2743       S  0.91563598  0.03893516  0.10933116    -0.33510
S2744       S  0.80891622  0.97038755  0.16214825    -0.33520
H2745       H  0.78647424  0.98293860  0.14585117     0.27850
H2746       H  0.90058311  0.06365123  0.09999239     0.27850
H2747       H  0.91210404  0.98273195  0.13568489     0.18440
H2748       H  0.81181139  0.01778289  0.12474260     0.18450
C2749       C  0.02858578  0.87345302  0.14955285    -0.07390
C2750       C  0.02420357  0.89784665  0.16733626    -0.18510
C2751       C  0.99702643  0.91129688  0.16942989     0.09810
C2752       C  0.97334317  0.89995282  0.15347966    -0.07310
C2753       C  0.97922732  0.87897610  0.13206153    -0.18550
C2754       C  0.00642217  0.86591699  0.12973691     0.09840
S2755       S  0.99418645  0.94247389  0.19303141    -0.33510
S2756       S  0.01099471  0.83992224  0.10089932    -0.33520
H2757       H  0.03827942  0.85040689  0.09280014     0.27850
H2758       H  0.97310351  0.95645725  0.17604172     0.27850
H2759       H  0.04195942  0.90676644  0.17952820     0.18440
H2760       H  0.96204768  0.87137122  0.11800443     0.18450
C2761       C  0.84053224  0.95819227  0.25863440    -0.07390
C2762       C  0.83364260  0.98639047  0.25065123    -0.18510
C2763       C  0.83453346  0.00873622  0.27084495     0.09810
C2764       C  0.84245939  0.00272364  0.30004318    -0.07310
C2765       C  0.84581540  0.97375327  0.30857728    -0.18550
C2766       C  0.84471286  0.95129368  0.28814763     0.09840
S2767       S  0.82774605  0.04427464  0.25650100    -0.33510
S2768       S  0.84957639  0.91411006  0.29975871    -0.33520
H2769       H  0.85336544  0.92008576  0.32944327     0.27850
H2770       H  0.80411460  0.04908974  0.27506896     0.27850
H2771       H  0.83002485  0.99153833  0.22802837     0.18440
H2772       H  0.85036416  0.96877653  0.33101736     0.18450
C2773       C  0.96376251  0.88319771  0.25582588    -0.07390
C2774       C  0.98421991  0.86119201  0.25938740    -0.18510
C2775       C  0.00267369  0.86124363  0.28341844     0.09810
C2776       C  0.99934652  0.88316907  0.30510957    -0.07310
C2777       C  0.98095506  0.90650862  0.29976153    -0.18550
C2778       C  0.96388855  0.90731459  0.27504761     0.09840
S2779       S  0.02683881  0.83059142  0.28597927    -0.33510
S2780       S  0.94279745  0.93992389  0.26965977    -0.33520
H2781       H  0.94532663  0.93950797  0.23934231     0.27850
H2782       H  0.04969509  0.84544147  0.29875717     0.27850
H2783       H  0.98483949  0.84313095  0.24424319     0.18440
H2784       H  0.97989664  0.92424957  0.31467595     0.18450
C2785       C  0.89062072  0.81124411  0.26135763    -0.07390
C2786       C  0.88292684  0.82274636  0.28863833    -0.18510
C2787       C  0.88088422  0.80512297  0.31304106     0.09810
C2788       C  0.88799056  0.77542694  0.31057774    -0.07310
C2789       C  0.89698148  0.76425398  0.28360432    -0.18550
C2790       C  0.89784507  0.78158984  0.25898052     0.09840
S2791       S  0.86703372  0.82146084  0.34579322    -0.33510
S2792       S  0.90602985  0.76402594  0.22498328    -0.33520
H2793       H  0.88065733  0.77394337  0.21142011     0.27850
H2794       H  0.84876265  0.79808842  0.35250283     0.27850
H2795       H  0.87702617  0.84546622  0.29070323     0.18440
H2796       H  0.90267677  0.74150482  0.28143137     0.18450
C2797       C  0.87833261  0.79244567  0.14456677    -0.07390
C2798       C  0.85912596  0.76894670  0.14589301    -0.18510
C2799       C  0.86638506  0.74197636  0.13365593     0.09810
C2800       C  0.89332228  0.73846255  0.11967108    -0.07310
C2801       C  0.91148277  0.76234879  0.11654571    -0.18550
C2802       C  0.90493287  0.78879942  0.12962004     0.09840
S2803       S  0.84065710  0.71284942  0.13678627    -0.33510
S2804       S  0.93371436  0.81504876  0.12989197    -0.33520
H2805       H  0.93438083  0.81688772  0.16031954     0.27850
H2806       H  0.84946715  0.69824894  0.11142624     0.27850
H2807       H  0.83866796  0.77140134  0.15703871     0.18440
H2808       H  0.93254263  0.75956172  0.10660211     0.18450
C2809       C  0.78411954  0.86966339  0.25324145    -0.07390
C2810       C  0.77277843  0.89784021  0.25704399    -0.18510
C2811       C  0.75477595  0.90505746  0.28035146     0.09810
C2812       C  0.74681972  0.88322687  0.30021620    -0.07310
C2813       C  0.75660673  0.85459135  0.29527503    -0.18550
C2814       C  0.77556418  0.84771667  0.27254776     0.09840
S2815       S  0.74373359  0.94257254  0.28480197    -0.33510
S2816       S  0.78964584  0.81128269  0.27080053    -0.33520
H2817       H  0.81859454  0.82015542  0.26820960     0.27850
H2818       H  0.76036522  0.95437544  0.26229349     0.27850
H2819       H  0.77878960  0.91470130  0.24198098     0.18440
H2820       H  0.75041331  0.83757792  0.31003315     0.18450
C2821       C  0.77620413  0.88202752  0.14354881    -0.07390
C2822       C  0.75471094  0.86434239  0.15554261    -0.18510
C2823       C  0.72543124  0.87193560  0.15308359     0.09810
C2824       C  0.71820533  0.89851119  0.13964115    -0.07310
C2825       C  0.73937115  0.91330490  0.12388351    -0.18550
C2826       C  0.76809667  0.90450363  0.12473889     0.09840
S2827       S  0.69932218  0.84791311  0.16924938    -0.33510
S2828       S  0.79417987  0.92479066  0.10417664    -0.33520
H2829       H  0.81687981  0.90470490  0.10759331     0.27850
H2830       H  0.67433598  0.86050900  0.15751478     0.27850
H2831       H  0.76082184  0.84651365  0.16952371     0.18440
H2832       H  0.73375318  0.93251080  0.11165437     0.18450
C2833       C  0.72066554  0.64418159  0.86256855    -0.07390
C2834       C  0.73945234  0.66807026  0.86588561    -0.18510
C2835       C  0.76922475  0.66402546  0.87188627     0.09810
C2836       C  0.78068679  0.63553296  0.87339787    -0.07310
C2837       C  0.76190878  0.61206137  0.86887776    -0.18550
C2838       C  0.73258197  0.61595856  0.86384582     0.09840
S2839       S  0.79101826  0.69572879  0.87835648    -0.33510
S2840       S  0.71191748  0.58362951  0.85742564    -0.33520
H2841       H  0.69783816  0.58660957  0.88416579     0.27850
H2842       H  0.80922611  0.68264606  0.89894242     0.27850
H2843       H  0.73082638  0.68990080  0.86439074     0.18440
H2844       H  0.77018802  0.59001335  0.86912330     0.18450
C2845       C  0.86492057  0.61819833  0.79141183    -0.07390
C2846       C  0.84973987  0.64247631  0.78153504    -0.18510
C2847       C  0.84723435  0.64807915  0.75191989     0.09810
C2848       C  0.85755960  0.62746477  0.73151930    -0.07310
C2849       C  0.87516848  0.60476116  0.74155301    -0.18550
C2850       C  0.88005750  0.60081249  0.77121637     0.09840
S2851       S  0.82930025  0.68095805  0.74176237    -0.33510
S2852       S  0.90508878  0.57288280  0.78157911    -0.33520
H2853       H  0.91293611  0.58514975  0.80835235     0.27850
H2854       H  0.85042729  0.68673287  0.72076319     0.27850
H2855       H  0.83946101  0.65698161  0.79700457     0.18440
H2856       H  0.88418386  0.58927807  0.72623826     0.18450
C2857       C  0.96686602  0.61627383  0.89682145    -0.07390
C2858       C  0.98598344  0.61010444  0.87383727    -0.18510
C2859       C  0.01620488  0.61381906  0.87710388     0.09810
C2860       C  0.02742975  0.62198371  0.90459245    -0.07310
C2861       C  0.00772952  0.62945829  0.92654065    -0.18550
C2862       C  0.97812454  0.62743077  0.92284859     0.09840
S2863       S  0.03851174  0.60708916  0.84582381    -0.33510
S2864       S  0.95597619  0.63830575  0.95306303    -0.33520
H2865       H  0.93687365  0.65453136  0.93578079     0.27850
H2866       H  0.06238989  0.62329028  0.85518402     0.27850
H2867       H  0.97740605  0.60204690  0.85347686     0.18440
H2868       H  0.01533207  0.63633740  0.94753324     0.18450
C2869       C  0.86847570  0.64104781  0.97269421    -0.07390
C2870       C  0.88178168  0.66541811  0.98511657    -0.18510
C2871       C  0.88223110  0.66957454  0.01534645     0.09810
C2872       C  0.87039976  0.64819774  0.03388033    -0.07310
C2873       C  0.85403359  0.62584518  0.02107676    -0.18550
C2874       C  0.85283188  0.62215940  0.99088038     0.09840
S2875       S  0.90152514  0.70060469  0.02892106    -0.33510
S2876       S  0.83390907  0.59079674  0.97703264    -0.33520
H2877       H  0.82818859  0.60243989  0.94956898     0.27850
H2878       H  0.88137469  0.70613568  0.05108098     0.27850
H2879       H  0.89366646  0.68019083  0.97140043     0.18440
H2880       H  0.84471149  0.60925843  0.03473615     0.18450
C2881       C  0.87795196  0.29153056  0.12713655    -0.07390
C2882       C  0.86363256  0.28209661  0.15181496    -0.18510
C2883       C  0.85669311  0.25303544  0.15526022     0.09810
C2884       C  0.86430472  0.23250781  0.13317128    -0.07310
C2885       C  0.88244670  0.24152608  0.11065860    -0.18550
C2886       C  0.88984592  0.27079721  0.10775822     0.09840
S2887       S  0.83489989  0.24535950  0.18670411    -0.33510
S2888       S  0.91292006  0.28057162  0.07793630    -0.33520
H2889       H  0.92216909  0.30702280  0.09010867     0.27850
H2890       H  0.85376843  0.22341361  0.19627343     0.27850
H2891       H  0.85510830  0.29782347  0.16718732     0.18440
H2892       H  0.88952841  0.22609341  0.09432051     0.18450
C2893       C  0.77718973  0.37323830  0.12617587    -0.07390
C2894       C  0.76808420  0.36190643  0.15276595    -0.18510
C2895       C  0.73869225  0.35587806  0.15833768     0.09810
C2896       C  0.71717857  0.36071529  0.13659991    -0.07310
C2897       C  0.72635951  0.37374570  0.11068039    -0.18550
C2898       C  0.75565363  0.38017492  0.10543356     0.09840
S2899       S  0.73080098  0.34062782  0.19328428    -0.33510
S2900       S  0.76428314  0.39683939  0.07135218    -0.33520
H2901       H  0.78815488  0.41253270  0.08195236     0.27850
H2902       H  0.70703037  0.35910683  0.19829437     0.27850
H2903       H  0.78417199  0.35643115  0.16893969     0.18440
H2904       H  0.71073399  0.37806665  0.09373571     0.18450
C2905       C  0.86341046  0.47777120  0.13496345    -0.07390
C2906       C  0.84999619  0.49774476  0.11645936    -0.18510
C2907       C  0.85551237  0.52747591  0.11884447     0.09810
C2908       C  0.87631365  0.53743739  0.13920404    -0.07310
C2909       C  0.88610880  0.51802071  0.16043468    -0.18550
C2910       C  0.87954089  0.48846565  0.15885770     0.09840
S2911       S  0.83643578  0.55094073  0.09415324    -0.33510
S2912       S  0.89568869  0.46550549  0.18592316    -0.33520
H2913       H  0.86975902  0.45068490  0.19156030     0.27850
H2914       H  0.83433032  0.57413003  0.11406729     0.27850
H2915       H  0.83642712  0.48998448  0.09889279     0.18440
H2916       H  0.90093859  0.52533869  0.17712296     0.18450
C2917       C  0.89659516  0.47500580  0.02329659    -0.07390
C2918       C  0.89734297  0.50432125  0.03158021    -0.18510
C2919       C  0.89523528  0.52638703  0.01072780     0.09810
C2920       C  0.89112442  0.51882075  0.98121865    -0.07310
C2921       C  0.89091147  0.48950176  0.97320293    -0.18550
C2922       C  0.89446429  0.46776397  0.99361550     0.09840
S2923       S  0.89753004  0.56376905  0.02219675    -0.33510
S2924       S  0.89961166  0.43151953  0.97991564    -0.33520
H2925       H  0.92409524  0.42669028  0.99730340     0.27850
H2926       H  0.90466784  0.55832223  0.05130060     0.27850
H2927       H  0.89933502  0.50983159  0.05433878     0.18440
H2928       H  0.88990822  0.48342717  0.95049932     0.18450
C2929       C  0.96224948  0.40016116  0.14427089    -0.07390
C2930       C  0.97271278  0.41970026  0.16498446    -0.18510
C2931       C  0.00241375  0.42315601  0.16953490     0.09810
C2932       C  0.02248363  0.40870344  0.15096284    -0.07310
C2933       C  0.01187934  0.38696615  0.13230576    -0.18550
C2934       C  0.98211165  0.38193985  0.12948001     0.09840
S2935       S  0.01272352  0.44745270  0.19855846    -0.33510
S2936       S  0.97105085  0.35332779  0.10512854    -0.33520
H2937       H  0.94666798  0.34524667  0.12117507     0.27850
H2938       H  0.03844395  0.43263008  0.20513717     0.27850
H2939       H  0.95760804  0.43290339  0.17726994     0.18440
H2940       H  0.02665718  0.37487813  0.11857979     0.18450
C2941       C  0.10881038  0.36772937  0.79474923    -0.07390
C2942       C  0.08681274  0.36746895  0.77374526    -0.18510
C2943       C  0.09297454  0.36508331  0.74400011     0.09810
C2944       C  0.12191414  0.36082330  0.73466314    -0.07310
C2945       C  0.14396808  0.36245275  0.75578084    -0.18550
C2946       C  0.13778010  0.36627220  0.78535985     0.09840
S2947       S  0.06270875  0.36709716  0.71948261    -0.33510
S2948       S  0.16757709  0.36584261  0.81043765    -0.33520
H2949       H  0.16038641  0.39290726  0.82275861     0.27850
H2950       H  0.07771674  0.38304802  0.69841611     0.27850
H2951       H  0.06448843  0.36893168  0.78060603     0.18440
H2952       H  0.16630994  0.35935901  0.74949353     0.18450
C2953       C  0.09829113  0.28730163  0.88584941    -0.07390
C2954       C  0.07462732  0.27082288  0.87614655    -0.18510
C2955       C  0.07752682  0.24186598  0.86759193     0.09810
C2956       C  0.10483808  0.22811016  0.86925726    -0.07310
C2957       C  0.12817865  0.24387152  0.88108255    -0.18550
C2958       C  0.12522575  0.27321913  0.88927838     0.09840
S2959       S  0.04547183  0.22453142  0.85360725    -0.33510
S2960       S  0.15659818  0.29151519  0.90350352    -0.33520
H2961       H  0.14104923  0.30996295  0.92227348     0.27850
H2962       H  0.05405664  0.19656431  0.86133890     0.27850
H2963       H  0.05371346  0.28093129  0.87361236     0.18440
H2964       H  0.14930107  0.23377107  0.88252208     0.18450
C2965       C  0.10958308  0.47541473  0.89025430    -0.07390
C2966       C  0.08639735  0.49417996  0.88414946    -0.18510
C2967       C  0.08807094  0.52362480  0.89039356     0.09810
C2968       C  0.11419039  0.53505950  0.90075235    -0.07310
C2969       C  0.13878671  0.51720475  0.90240526    -0.18550
C2970       C  0.13673463  0.48730901  0.89735637     0.09840
S2971       S  0.05549643  0.54473321  0.88760191    -0.33510
S2972       S  0.16823030  0.46536828  0.90400607    -0.33520
H2973       H  0.16479526  0.44874293  0.87857330     0.27850
H2974       H  0.07026867  0.57078653  0.88284191     0.27850
H2975       H  0.06577651  0.48544732  0.87739025     0.18440
H2976       H  0.15903358  0.52612192  0.91023197     0.18450
C2977       C  0.96291508  0.51565414  0.90330572    -0.07390
C2978       C  0.97234546  0.50161844  0.87806988    -0.18510
C2979       C  0.99507199  0.48169191  0.87881241     0.09810
C2980       C  0.00830903  0.47492029  0.90549426    -0.07310
C2981       C  0.00099395  0.49117151  0.93022189    -0.18550
C2982       C  0.97870163  0.51189277  0.92926980     0.09840
S2983       S  0.00449540  0.46408519  0.84525756    -0.33510
S2984       S  0.96909934  0.53006061  0.96250768    -0.33520
H2985       H  0.96530017  0.55729600  0.94942884     0.27850
H2986       H  0.03161374  0.45368660  0.85417768     0.27850
H2987       H  0.96067833  0.50481153  0.85793530     0.18440
H2988       H  0.01112585  0.48617425  0.95079064     0.18450
C2989       C  0.12423580  0.38582188  0.97924433    -0.07390
C2990       C  0.10451835  0.37489263  0.99945503    -0.18510
C2991       C  0.10862535  0.37868285  0.02938056     0.09810
C2992       C  0.13289825  0.39455396  0.03971651    -0.07310
C2993       C  0.15394749  0.40295361  0.01932636    -0.18550
C2994       C  0.14985147  0.39882359  0.98943301     0.09840
S2995       S  0.08047114  0.36514761  0.05254229    -0.33510
S2996       S  0.17675257  0.41317707  0.96528068    -0.33520
H2997       H  0.16987067  0.39520164  0.94154514     0.27850
H2998       H  0.09996996  0.35254148  0.07225653     0.27850
H2999       H  0.08466236  0.36501715  0.99178491     0.18440
H3000       H  0.17295842  0.41467063  0.02649634     0.18450
C3001       C  0.01371010  0.38856032  0.99249555    -0.07390
C3002       C  0.99505777  0.36442755  0.99224322    -0.18510
C3003       C  0.97226967  0.36208737  0.01189454     0.09810
C3004       C  0.96751794  0.38444348  0.03237501    -0.07310
C3005       C  0.98809942  0.40661909  0.03509310    -0.18550
C3006       C  0.01130770  0.40873922  0.01569476     0.09840
S3007       S  0.94912983  0.33074043  0.00876241    -0.33510
S3008       S  0.03588881  0.43851373  0.02098972    -0.33520
H3009       H  0.06066389  0.42206221  0.01428565     0.27850
H3010       H  0.94084175  0.33070326  0.03806952     0.27850
H3011       H  0.99700827  0.34795671  0.97551091     0.18440
H3012       H  0.98495998  0.42356985  0.05112480     0.18450
C3013       C  0.64924050  0.39902900  0.79625202    -0.07390
C3014       C  0.66775088  0.41802157  0.78187716    -0.18510
C3015       C  0.66802298  0.42042807  0.75180546     0.09810
C3016       C  0.64718179  0.40529072  0.73455347    -0.07310
C3017       C  0.62879819  0.38570182  0.74882452    -0.18550
C3018       C  0.63033252  0.38167658  0.77915866     0.09840
S3019       S  0.69594514  0.44378361  0.73776316    -0.33510
S3020       S  0.60681274  0.35502807  0.79476504    -0.33520
H3021       H  0.62992204  0.33846723  0.80576652     0.27850
H3022       H  0.70565610  0.42292271  0.71755687     0.27850
H3023       H  0.68292240  0.43091406  0.79427423     0.18440
H3024       H  0.61295795  0.37361962  0.73638897     0.18450
C3025       C  0.80210212  0.50305170  0.89421293    -0.07390
C3026       C  0.77779424  0.51327431  0.87907027    -0.18510
C3027       C  0.75382805  0.49562668  0.87392019     0.09810
C3028       C  0.75361000  0.46714600  0.88509343    -0.07310
C3029       C  0.77763114  0.45747931  0.90141275    -0.18550
C3030       C  0.80174206  0.47507322  0.90602639     0.09840
S3031       S  0.72468887  0.51003093  0.85222778    -0.33510
S3032       S  0.83084103  0.46105978  0.92779041    -0.33520
H3033       H  0.83699466  0.48796107  0.94093828     0.27850
H3034       H  0.74188393  0.52959715  0.83656397     0.27850
H3035       H  0.77805405  0.53495706  0.87009466     0.18440
H3036       H  0.77800027  0.43583324  0.91044871     0.18450
C3037       C  0.62947416  0.47318679  0.89146128    -0.07390
C3038       C  0.64491472  0.49604429  0.90465435    -0.18510
C3039       C  0.63972754  0.52530744  0.89769076     0.09810
C3040       C  0.61941832  0.53252303  0.87574931    -0.07310
C3041       C  0.60165222  0.50998354  0.86522717    -0.18550
C3042       C  0.60633906  0.48077715  0.87270823     0.09840
S3043       S  0.66011334  0.55196628  0.91766714    -0.33510
S3044       S  0.58341199  0.45433341  0.85542315    -0.33520
H3045       H  0.60559246  0.44471972  0.83686282     0.27850
H3046       H  0.63662822  0.57123106  0.92062391     0.27850
H3047       H  0.66191742  0.49108725  0.92003511     0.18440
H3048       H  0.58511388  0.51476838  0.84930923     0.18450
C3049       C  0.62269354  0.36640687  0.03616594    -0.07390
C3050       C  0.64227158  0.38862551  0.03039366    -0.18510
C3051       C  0.64363480  0.40109103  0.00286766     0.09810
C3052       C  0.62668530  0.38943389  0.97980637    -0.07310
C3053       C  0.60480794  0.36972142  0.98657671    -0.18550
C3054       C  0.60222477  0.35862591  0.01461077     0.09840
S3055       S  0.66801081  0.43130569  0.99847268    -0.33510
S3056       S  0.57318972  0.33358753  0.02087952    -0.33520
H3057       H  0.56511003  0.34605538  0.04753068     0.27850
H3058       H  0.65261885  0.44370044  0.97527134     0.27850
H3059       H  0.65653984  0.39633727  0.04741310     0.18440
H3060       H  0.59076214  0.36151622  0.96963277     0.18450
C3061       C  0.76905799  0.38527823  0.95530767    -0.07390
C3062       C  0.76977621  0.40954967  0.97407589    -0.18510
C3063       C  0.79211540  0.41310489  0.99436762     0.09810
C3064       C  0.81379066  0.39171804  0.99618242    -0.07310
C3065       C  0.81343918  0.36805892  0.97699444    -0.18550
C3066       C  0.79130511  0.36433372  0.95702045     0.09840
S3067       S  0.79251002  0.44567323  0.01621532    -0.33510
S3068       S  0.79144499  0.33093223  0.93656245    -0.33520
H3069       H  0.76324703  0.32410350  0.94532699     0.27850
H3070       H  0.82259239  0.44642641  0.02043308     0.27850
H3071       H  0.75303603  0.42598483  0.97270328     0.18440
H3072       H  0.82994926  0.35143381  0.97849309     0.18450
C3073       C  0.63873263  0.22873578  0.91426222    -0.07390
C3074       C  0.63604477  0.24674009  0.93880644    -0.18510
C3075       C  0.63780115  0.27661537  0.93724791     0.09810
C3076       C  0.64460374  0.28978603  0.91067182    -0.07310
C3077       C  0.64968050  0.27186851  0.88620617    -0.18550
C3078       C  0.64647168  0.24140769  0.88762436     0.09840
S3079       S  0.62778729  0.29634812  0.96959146    -0.33510
S3080       S  0.65199514  0.22051284  0.85495629    -0.33520
H3081       H  0.63499544  0.19656813  0.86259152     0.27850
H3082       H  0.60889187  0.31485639  0.95451766     0.27850
H3083       H  0.62988432  0.23768565  0.95940972     0.18440
H3084       H  0.65566827  0.28166012  0.86580968     0.18450
C3085       C  0.97218133  0.14180462  0.88722614    -0.07390
C3086       C  0.97992214  0.11821056  0.86957152    -0.18510
C3087       C  0.00879956  0.11306929  0.86181854     0.09810
C3088       C  0.03097613  0.13243737  0.87072333    -0.07310
C3089       C  0.02373699  0.15414576  0.89086868    -0.18550
C3090       C  0.99490972  0.15865106  0.89966067     0.09840
S3091       S  0.01571515  0.08126526  0.84040078    -0.33510
S3092       S  0.98871228  0.18672286  0.92637145    -0.33520
H3093       H  0.96522623  0.17253606  0.93942619     0.27850
H3094       H  0.03917736  0.07336629  0.85794212     0.27850
H3095       H  0.96325241  0.10436258  0.86052660     0.18440
H3096       H  0.04050887  0.16817800  0.89936168     0.18450
C3097       C  0.87620343  0.13826459  0.97653485    -0.07390
C3098       C  0.86870622  0.11091173  0.98747078    -0.18510
C3099       C  0.86749024  0.10597754  0.01762809     0.09810
C3100       C  0.87219852  0.12915912  0.03744018    -0.07310
C3101       C  0.88290522  0.15533113  0.02630162    -0.18550
C3102       C  0.88557147  0.15984213  0.99637836     0.09840
S3103       S  0.85783659  0.07028801  0.02957304    -0.33510
S3104       S  0.89945586  0.19444890  0.98485083    -0.33520
H3105       H  0.90910282  0.18498186  0.95749402     0.27850
H3106       H  0.87533235  0.07179108  0.05441779     0.27850
H3107       H  0.86226991  0.09381129  0.97260065     0.18440
H3108       H  0.88692780  0.17336357  0.04096709     0.18450
C3109       C  0.85729295  0.26153528  0.96974875    -0.07390
C3110       C  0.84552116  0.25481210  0.99697381    -0.18510
C3111       C  0.84562317  0.27488473  0.01956864     0.09810
C3112       C  0.85876815  0.30203398  0.01521528    -0.07310
C3113       C  0.87189177  0.30830272  0.98873727    -0.18550
C3114       C  0.87039944  0.28891884  0.96553792     0.09840
S3115       S  0.82823698  0.26432595  0.05283893    -0.33510
S3116       S  0.88236551  0.30138685  0.93051516    -0.33520
H3117       H  0.89723499  0.32626012  0.94013617     0.27850
H3118       H  0.84363017  0.28306232  0.07104060     0.27850
H3119       H  0.83546111  0.23392950  0.00064223     0.18440
H3120       H  0.88124412  0.32958780  0.98551606     0.18450
C3121       C  0.93311320  0.27712478  0.87769748    -0.07390
C3122       C  0.94998790  0.28061457  0.90270867    -0.18510
C3123       C  0.97721141  0.29322023  0.90159119     0.09810
C3124       C  0.98759677  0.30402273  0.87496908    -0.07310
C3125       C  0.97088887  0.30056361  0.84988698    -0.18550
C3126       C  0.94395871  0.28707178  0.85100014     0.09840
S3127       S  0.99815144  0.29305603  0.93461910    -0.33510
S3128       S  0.92489989  0.28243966  0.81764581    -0.33520
H3129       H  0.90189276  0.29885615  0.82889983     0.27850
H3130       H  0.02488289  0.28884326  0.92072461     0.27850
H3131       H  0.94268446  0.27155943  0.92305693     0.18440
H3132       H  0.97840929  0.30919728  0.82944842     0.18450
C3133       C  0.77764010  0.25034270  0.89180030    -0.07390
C3134       C  0.76721746  0.26191376  0.86572945    -0.18510
C3135       C  0.74377909  0.28125497  0.86526116     0.09810
C3136       C  0.73151989  0.29100364  0.89175169    -0.07310
C3137       C  0.73918916  0.27603060  0.91719147    -0.18550
C3138       C  0.76195604  0.25582190  0.91747246     0.09840
S3139       S  0.73166271  0.29337016  0.83024916    -0.33510
S3140       S  0.77253768  0.24121633  0.95195997    -0.33520
H3141       H  0.77756153  0.21318181  0.94102545     0.27850
H3142       H  0.70233288  0.29446817  0.83818990     0.27850
H3143       H  0.77841853  0.25700241  0.84566607     0.18440
H3144       H  0.72917462  0.28189292  0.93760927     0.18450
C3145       C  0.78350364  0.14996316  0.90069941    -0.07390
C3146       C  0.77654190  0.15253141  0.93007285    -0.18510
C3147       C  0.74809338  0.15192984  0.93979896     0.09810
C3148       C  0.72532694  0.14661730  0.91991211    -0.07310
C3149       C  0.73226110  0.14203304  0.89048930    -0.18550
C3150       C  0.76110129  0.14437984  0.88053281     0.09840
S3151       S  0.74171742  0.15981500  0.97772934    -0.33510
S3152       S  0.76736872  0.14216838  0.84205356    -0.33520
H3153       H  0.79741196  0.13818325  0.84324815     0.27850
H3154       H  0.77035537  0.15662366  0.98750579     0.27850
H3155       H  0.79359224  0.15728333  0.94546655     0.18440
H3156       H  0.71505004  0.13814263  0.87502565     0.18450
C3157       C  0.89189814  0.15617916  0.79096452    -0.07390
C3158       C  0.87366152  0.13752274  0.77507657    -0.18510
C3159       C  0.87441901  0.13679465  0.74451586     0.09810
C3160       C  0.89292107  0.15603991  0.72942258    -0.07310
C3161       C  0.90777774  0.17713545  0.74550725    -0.18550
C3162       C  0.90962593  0.17588754  0.77538458     0.09840
S3163       S  0.85162759  0.11081019  0.72637980    -0.33510
S3164       S  0.93707093  0.19904275  0.79099098    -0.33520
H3165       H  0.95445684  0.17533531  0.79923030     0.27850
H3166       H  0.84405882  0.12987970  0.70387824     0.27850
H3167       H  0.85956936  0.12271638  0.78644902     0.18440
H3168       H  0.92081156  0.19322629  0.73456974     0.18450
C3169       C  0.86518857  0.48097414  0.64685472    -0.07390
C3170       C  0.84647424  0.48549161  0.62344911    -0.18510
C3171       C  0.84219042  0.51342019  0.61193867     0.09810
C3172       C  0.85433115  0.53820941  0.62603029    -0.07310
C3173       C  0.87479628  0.53326964  0.64789321    -0.18550
C3174       C  0.88117643  0.50509967  0.65749544     0.09840
S3175       S  0.82172179  0.51560897  0.57877675    -0.33510
S3176       S  0.90948528  0.50199791  0.68397797    -0.33520
H3177       H  0.92127805  0.47646264  0.67201909     0.27850
H3178       H  0.83713571  0.53959887  0.56815688     0.27850
H3179       H  0.83531746  0.46711516  0.61387566     0.18440
H3180       H  0.88528400  0.55153726  0.65839056     0.18450
C3181       C  0.78429306  0.39132781  0.75526901    -0.07390
C3182       C  0.76993601  0.41635312  0.76496455    -0.18510
C3183       C  0.75408624  0.41604779  0.79049027     0.09810
C3184       C  0.75200632  0.39009601  0.80634120    -0.07310
C3185       C  0.76433418  0.36470075  0.79564398    -0.18550
C3186       C  0.77994796  0.36466146  0.77012583     0.09840
S3187       S  0.74102428  0.45022644  0.80381431    -0.33510
S3188       S  0.79292770  0.32935795  0.75911702    -0.33520
H3189       H  0.79400509  0.33512616  0.72998703     0.27850
H3190       H  0.76112926  0.44996385  0.82664300     0.27850
H3191       H  0.77283470  0.43684127  0.75391218     0.18440
H3192       H  0.76212293  0.34466497  0.80762033     0.18450
C3193       C  0.77529787  0.36811623  0.65099676    -0.07390
C3194       C  0.77480135  0.38123892  0.62367994    -0.18510
C3195       C  0.74858729  0.38852306  0.61032724     0.09810
C3196       C  0.72242209  0.38508191  0.62586001    -0.07310
C3197       C  0.72283116  0.36875607  0.65130310    -0.18550
C3198       C  0.74874560  0.35969603  0.66365425     0.09840
S3199       S  0.75031956  0.40295679  0.57420514    -0.33510
S3200       S  0.74581363  0.34070998  0.69734263    -0.33520
H3201       H  0.76275414  0.31718198  0.68762416     0.27850
H3202       H  0.72552440  0.38808173  0.56458797     0.27850
H3203       H  0.79494699  0.38649121  0.61300381     0.18440
H3204       H  0.70288199  0.36472404  0.66287505     0.18450
C3205       C  0.87616794  0.46787332  0.76241414    -0.07390
C3206       C  0.84981643  0.47331163  0.77628586    -0.18510
C3207       C  0.84730298  0.49360231  0.79891159     0.09810
C3208       C  0.87174151  0.50975942  0.80863684    -0.07310
C3209       C  0.89851622  0.50331981  0.79554078    -0.18550
C3210       C  0.90094285  0.48314429  0.77235598     0.09840
S3211       S  0.81238333  0.49565912  0.81569144    -0.33510
S3212       S  0.93602558  0.47649053  0.75653000    -0.33520
H3213       H  0.95160175  0.49646891  0.77358415     0.27850
H3214       H  0.82345906  0.48446073  0.84169599     0.27850
H3215       H  0.83070833  0.46154323  0.76940345     0.18440
H3216       H  0.91763857  0.51435744  0.80334588     0.18450
C3217       C  0.97180297  0.36389288  0.66403613    -0.07390
C3218       C  0.97937715  0.33467338  0.66372855    -0.18510
C3219       C  0.00688807  0.32598318  0.65550371     0.09810
C3220       C  0.02765730  0.34747348  0.64814794    -0.07310
C3221       C  0.01944420  0.37665056  0.64671873    -0.18550
C3222       C  0.99155902  0.38509998  0.65434664     0.09840
S3223       S  0.01435212  0.28731553  0.65462023    -0.33510
S3224       S  0.98343121  0.42336020  0.65392448    -0.33520
H3225       H  0.96191750  0.42022050  0.63255383     0.27850
H3226       H  0.98655783  0.27737597  0.66173161     0.27850
H3227       H  0.96368733  0.31868545  0.67052684     0.18440
H3228       H  0.03507831  0.39303287  0.64073428     0.18450
C3229       C  0.94828262  0.39780540  0.77180155    -0.07390
C3230       C  0.97595811  0.40999621  0.76749997    -0.18510
C3231       C  0.99759798  0.40862301  0.78880059     0.09810
C3232       C  0.99136108  0.39501159  0.81538299    -0.07310
C3233       C  0.96384418  0.38328212  0.81970573    -0.18550
C3234       C  0.94256282  0.38416948  0.79848408     0.09840
S3235       S  0.03202823  0.42479519  0.78026662    -0.33510
S3236       S  0.90877961  0.36694687  0.80641258    -0.33520
H3237       H  0.91614201  0.35434296  0.83311422     0.27850
H3238       H  0.04224948  0.42833105  0.80863377     0.27850
H3239       H  0.98109960  0.42032936  0.74713199     0.18440
H3240       H  0.95919220  0.37229791  0.83983189     0.18450
C3241       C  0.85824286  0.24516489  0.80042590    -0.07390
C3242       C  0.85387838  0.27398166  0.80910365    -0.18510
C3243       C  0.85646243  0.29688722  0.78953736     0.09810
C3244       C  0.86490595  0.29098222  0.76057425    -0.07310
C3245       C  0.86435673  0.26195299  0.75093510    -0.18550
C3246       C  0.85920785  0.23916715  0.77050891     0.09840
S3247       S  0.84878461  0.33258541  0.80386885    -0.33510
S3248       S  0.84644055  0.20531232  0.75609656    -0.33520
H3249       H  0.83692475  0.19393430  0.78261762     0.27850
H3250       H  0.85165608  0.34838121  0.77816836     0.27850
H3251       H  0.85004798  0.27895809  0.83172844     0.18440
H3252       H  0.86712981  0.25709413  0.72812111     0.18450
C3253       C  0.88290372  0.29200936  0.64902151    -0.07390
C3254       C  0.90892225  0.28642390  0.63469557    -0.18510
C3255       C  0.91783856  0.25795735  0.62831315     0.09810
C3256       C  0.90146158  0.23374780  0.63772815    -0.07310
C3257       C  0.87456208  0.23928987  0.65068198    -0.18550
C3258       C  0.86501418  0.26800963  0.65600535     0.09840
S3259       S  0.95041572  0.25409395  0.60777559    -0.33510
S3260       S  0.83110375  0.27268623  0.67449659    -0.33520
H3261       H  0.82257512  0.29647366  0.65756552     0.27850
H3262       H  0.93748668  0.23474898  0.58794327     0.27850
H3263       H  0.92299991  0.30439381  0.62936325     0.18440
H3264       H  0.86154888  0.22123492  0.65798494     0.18450
C3265       C  0.61267399  0.79145356  0.88435871    -0.07390
C3266       C  0.63738989  0.77945313  0.87161188    -0.18510
C3267       C  0.64044316  0.74922755  0.86899417     0.09810
C3268       C  0.61699480  0.73102804  0.87683573    -0.07310
C3269       C  0.59440021  0.74301336  0.89293942    -0.18550
C3270       C  0.59276836  0.77280972  0.89759278     0.09840
S3271       S  0.67358430  0.73583856  0.85358360    -0.33510
S3272       S  0.56436821  0.78575660  0.91998535    -0.33520
H3273       H  0.57923255  0.81060236  0.92926889     0.27850
H3274       H  0.67621850  0.71308750  0.87363300     0.27850
H3275       H  0.65363571  0.79359767  0.86247158     0.18440
H3276       H  0.57706196  0.72929239  0.90061713     0.18450
C3277       C  0.62086986  0.86735170  0.79092580    -0.07390
C3278       C  0.64962312  0.86708234  0.78083924    -0.18510
C3279       C  0.65584774  0.86180353  0.75115385     0.09810
C3280       C  0.63284534  0.85819091  0.73111809    -0.07310
C3281       C  0.60460305  0.85904757  0.74128775    -0.18550
C3282       C  0.59854553  0.86167451  0.77047774     0.09840
S3283       S  0.69314227  0.86055861  0.74007106    -0.33510
S3284       S  0.56187917  0.85339194  0.77983934    -0.33520
H3285       H  0.57042138  0.83426633  0.80191520     0.27850
H3286       H  0.68813631  0.86593084  0.71052981     0.27850
H3287       H  0.66714639  0.87101783  0.79592356     0.18440
H3288       H  0.58682915  0.85466805  0.72652800     0.18450
C3289       C  0.62531163  0.97645142  0.88438152    -0.07390
C3290       C  0.64822396  0.98696713  0.90121542    -0.18510
C3291       C  0.65178205  0.01687544  0.90642818     0.09810
C3292       C  0.63120041  0.03720927  0.89550870    -0.07310
C3293       C  0.61017162  0.02662676  0.87606385    -0.18550
C3294       C  0.60727772  0.99674428  0.87020812     0.09840
S3295       S  0.68186874  0.02708449  0.92906347    -0.33510
S3296       S  0.57851961  0.98561428  0.84622863    -0.33520
H3297       H  0.59034361  0.95836240  0.83904213     0.27850
H3298       H  0.66544415  0.02501238  0.95460464     0.27850
H3299       H  0.66224897  0.97165858  0.91217546     0.18440
H3300       H  0.59458625  0.04147019  0.86671899     0.18450
C3301       C  0.60115146  0.89468415  0.97793660    -0.07390
C3302       C  0.62548466  0.90903829  0.98886704    -0.18510
C3303       C  0.62972673  0.91213194  0.01883363     0.09810
C3304       C  0.60777126  0.90306851  0.03813504    -0.07310
C3305       C  0.58479347  0.88666112  0.02727324    -0.18550
C3306       C  0.58248333  0.88079842  0.99759191     0.09840
S3307       S  0.66339594  0.92707074  0.03178267    -0.33510
S3308       S  0.55830916  0.85240589  0.98681026    -0.33520
H3309       H  0.56868407  0.84921819  0.95850649     0.27850
H3310       H  0.67554764  0.93306502  0.00456289     0.27850
H3311       H  0.64085301  0.91828813  0.97388078     0.18440
H3312       H  0.56903609  0.87773425  0.04198557     0.18450
C3313       C  0.37503803  0.79273091  0.11514241    -0.07390
C3314       C  0.36226151  0.78183392  0.14026919    -0.18510
C3315       C  0.35769074  0.75190813  0.14376380     0.09810
C3316       C  0.36346232  0.73234650  0.12048389    -0.07310
C3317       C  0.37871448  0.74300733  0.09651590    -0.18550
C3318       C  0.38595358  0.77267716  0.09455492     0.09840
S3319       S  0.34330852  0.74062042  0.17808282    -0.33510
S3320       S  0.41057910  0.78371474  0.06651526    -0.33520
H3321       H  0.41791465  0.81062835  0.07906724     0.27850
H3322       H  0.36238121  0.71702847  0.18097608     0.27850
H3323       H  0.35463238  0.79681812  0.15678259     0.18440
H3324       H  0.38517439  0.72818850  0.07940574     0.18450
C3325       C  0.27255295  0.86892311  0.11685210    -0.07390
C3326       C  0.25245935  0.88801228  0.10420989    -0.18510
C3327       C  0.22297230  0.88645001  0.11094725     0.09810
C3328       C  0.21335596  0.86490592  0.13010037    -0.07310
C3329       C  0.23395603  0.84810785  0.14501333    -0.18550
C3330       C  0.26336841  0.84975433  0.13854797     0.09840
S3331       S  0.19867117  0.91138202  0.09344859    -0.33510
S3332       S  0.28722910  0.82395907  0.15567144    -0.33520
H3333       H  0.31201117  0.84144349  0.15497253     0.27850
H3334       H  0.17534451  0.90728427  0.11243074     0.27850
H3335       H  0.25957734  0.90315697  0.08782332     0.18440
H3336       H  0.22699642  0.83168127  0.16007648     0.18450
C3337       C  0.46076135  0.90246384  0.12556943    -0.07390
C3338       C  0.48231081  0.88932303  0.10863688    -0.18510
C3339       C  0.51119856  0.88875702  0.11752807     0.09810
C3340       C  0.51932808  0.90258886  0.14371641    -0.07310
C3341       C  0.49733235  0.91360118  0.16185809    -0.18550
C3342       C  0.46827656  0.91382482  0.15302352     0.09840
S3343       S  0.53645842  0.87000115  0.09436629    -0.33510
S3344       S  0.44234658  0.93107455  0.17665460    -0.33520
H3345       H  0.42643867  0.94439828  0.15441009     0.27850
H3346       H  0.55486518  0.86133588  0.11703332     0.27850
H3347       H  0.47659990  0.87938672  0.08818406     0.18440
H3348       H  0.50295867  0.92430940  0.18205029     0.18450
C3349       C  0.50138110  0.90590676  0.97134844    -0.07390
C3350       C  0.49549017  0.87831671  0.98210450    -0.18510
C3351       C  0.48307908  0.87448888  0.00924654     0.09810
C3352       C  0.47253986  0.89890118  0.02468494    -0.07310
C3353       C  0.48004562  0.92680805  0.01488895    -0.18550
C3354       C  0.49423182  0.93053701  0.98823852     0.09840
S3355       S  0.47880763  0.83763560  0.02167369    -0.33510
S3356       S  0.49940110  0.96702910  0.97545439    -0.33520
H3357       H  0.49391725  0.96059608  0.94615967     0.27850
H3358       H  0.47452572  0.84495580  0.05093034     0.27850
H3359       H  0.50043961  0.85944344  0.96903234     0.18440
H3360       H  0.47176828  0.94583397  0.02608836     0.18450
C3361       C  0.36256251  0.98024695  0.12532450    -0.07390
C3362       C  0.37130828  0.98971243  0.15297871    -0.18510
C3363       C  0.37448780  0.01955169  0.15944777     0.09810
C3364       C  0.37007822  0.04056056  0.13756828    -0.07310
C3365       C  0.35818724  0.03106129  0.11109709    -0.18550
C3366       C  0.35418714  0.00143377  0.10488889     0.09840
S3367       S  0.38746833  0.02931152  0.19487077    -0.33510
S3368       S  0.34159260  0.99187118  0.06906660    -0.33520
H3369       H  0.33104544  0.96427533  0.07643967     0.27850
H3370       H  0.37090305  0.05491737  0.19636417     0.27850
H3371       H  0.37783255  0.97380324  0.16892119     0.18440
H3372       H  0.35473359  0.04667451  0.09393927     0.18450
C3373       C  0.27938360  0.11164989  0.86905323    -0.07390
C3374       C  0.26198275  0.08760620  0.87481369    -0.18510
C3375       C  0.23198031  0.09034369  0.87637978     0.09810
C3376       C  0.21884028  0.11756313  0.87173906    -0.07310
C3377       C  0.23642981  0.14214214  0.86848758    -0.18550
C3378       C  0.26659614  0.13943190  0.86703292     0.09840
S3379       S  0.21118611  0.05838298  0.88388079    -0.33510
S3380       S  0.28752352  0.17184576  0.86111256    -0.33520
H3381       H  0.30892633  0.15845951  0.84401713     0.27850
H3382       H  0.18820974  0.07386005  0.89663354     0.27850
H3383       H  0.27186833  0.06665747  0.87839456     0.18440
H3384       H  0.22660115  0.16312126  0.86442082     0.18450
C3385       C  0.37438455  0.12535770  0.79250829    -0.07390
C3386       C  0.37186677  0.10229280  0.77264544    -0.18510
C3387       C  0.36478841  0.10671787  0.74401739     0.09810
C3388       C  0.35991545  0.13520682  0.73425197    -0.07310
C3389       C  0.36363302  0.15876183  0.75340092    -0.18550
C3390       C  0.37147071  0.15412951  0.78241828     0.09840
S3391       S  0.35753618  0.07458365  0.72258766    -0.33510
S3392       S  0.37715497  0.18542873  0.80527064    -0.33520
H3393       H  0.39910053  0.17241485  0.82192601     0.27850
H3394       H  0.38103289  0.07952501  0.70397349     0.27850
H3395       H  0.37306230  0.08008467  0.77977909     0.18440
H3396       H  0.35986782  0.18069485  0.74586790     0.18450
C3397       C  0.45925107  0.14807902  0.87698596    -0.07390
C3398       C  0.47966259  0.13355973  0.85914257    -0.18510
C3399       C  0.50914816  0.13233132  0.86615008     0.09810
C3400       C  0.51933846  0.14713000  0.89081908    -0.07310
C3401       C  0.49981893  0.16476302  0.90652721    -0.18550
C3402       C  0.47005067  0.16542727  0.89992070     0.09840
S3403       S  0.53227445  0.10979647  0.84400315    -0.33510
S3404       S  0.44690563  0.18662087  0.92312557    -0.33520
H3405       H  0.42884910  0.19585368  0.90041289     0.27850
H3406       H  0.55813173  0.12432394  0.85077759     0.27850
H3407       H  0.47222636  0.12062881  0.84091166     0.18440
H3408       H  0.50744923  0.17649774  0.92546502     0.18450
C3409       C  0.50522450  0.97734514  0.88189291    -0.07390
C3410       C  0.48059160  0.96736824  0.86696229    -0.18510
C3411       C  0.45739631  0.98547662  0.86162147     0.09810
C3412       C  0.45833783  0.01401561  0.87200015    -0.07310
C3413       C  0.48349014  0.02493839  0.88508181    -0.18550
C3414       C  0.50699818  0.00675994  0.89039062     0.09840
S3415       S  0.42688501  0.97097986  0.84211562    -0.33510
S3416       S  0.53778701  0.02202614  0.90877722    -0.33520
H3417       H  0.53189938  0.00717167  0.93461309     0.27850
H3418       H  0.42251391  0.99658697  0.82628214     0.27850
H3419       H  0.47856656  0.94483288  0.86057063     0.18440
H3420       H  0.48403231  0.04714481  0.89303691     0.18450
C3421       C  0.38551014  0.12388272  0.97399286    -0.07390
C3422       C  0.39913412  0.14839170  0.98509606    -0.18510
C3423       C  0.39687480  0.15555977  0.01427968     0.09810
C3424       C  0.38389809  0.13556352  0.03382372    -0.07310
C3425       C  0.36815379  0.11229512  0.02227553    -0.18550
C3426       C  0.36735441  0.10736719  0.99233499     0.09840
S3427       S  0.41096425  0.19068940  0.02438734    -0.33510
S3428       S  0.34465290  0.07828247  0.97959742    -0.33520
H3429       H  0.33227173  0.09407771  0.95681245     0.27850
H3430       H  0.38715604  0.19733006  0.04216591     0.27850
H3431       H  0.41067052  0.16273800  0.97066979     0.18440
H3432       H  0.35715034  0.09741760  0.03660601     0.18450
C3433       C  0.40014678  0.02117895  0.96226647    -0.07390
C3434       C  0.39791480  0.99238395  0.95260688    -0.18510
C3435       C  0.40105415  0.96922483  0.97151781     0.09810
C3436       C  0.40397209  0.97499358  0.00145402    -0.07310
C3437       C  0.40887798  0.00378354  0.01068533    -0.18550
C3438       C  0.40852608  0.02676248  0.99111982     0.09840
S3439       S  0.40240583  0.93333501  0.95565075    -0.33510
S3440       S  0.41948450  0.06180279  0.00467376    -0.33520
H3441       H  0.42810368  0.07356600  0.97816695     0.27850
H3442       H  0.42639437  0.92455157  0.97226696     0.27850
H3443       H  0.39441478  0.98780594  0.92983805     0.18440
H3444       H  0.41317542  0.00854522  0.03330192     0.18450
C3445       C  0.38748010  0.65707206  0.79875798    -0.07390
C3446       C  0.39626770  0.62973210  0.78822018    -0.18510
C3447       C  0.39191194  0.62206852  0.75915864     0.09810
C3448       C  0.38363510  0.64363497  0.73926970    -0.07310
C3449       C  0.37281409  0.66990165  0.75006120    -0.18550
C3450       C  0.37097948  0.67475510  0.77986859     0.09840
S3451       S  0.39632848  0.58461172  0.74859540    -0.33510
S3452       S  0.34240935  0.69860270  0.79156735    -0.33520
H3453       H  0.33965670  0.68690192  0.81941306     0.27850
H3454       H  0.37417133  0.58516967  0.72772035     0.27850
H3455       H  0.40497880  0.61372616  0.80300590     0.18440
H3456       H  0.36489076  0.68623203  0.73542172     0.18450
C3457       C  0.44531066  0.78079270  0.89117841    -0.07390
C3458       C  0.46336884  0.77882690  0.91551240    -0.18510
C3459       C  0.48691994  0.79758739  0.91926085     0.09810
C3460       C  0.49411183  0.81682689  0.89642162    -0.07310
C3461       C  0.47348088  0.82071158  0.87429123    -0.18550
C3462       C  0.44924257  0.80330153  0.87158785     0.09840
S3463       S  0.50442764  0.79584938  0.95405659    -0.33510
S3464       S  0.42544713  0.80914058  0.84143412    -0.33520
H3465       H  0.42976803  0.78058554  0.83179003     0.27850
H3466       H  0.52299674  0.81909352  0.95008805     0.27850
H3467       H  0.45897711  0.76252714  0.93177210     0.18440
H3468       H  0.47638330  0.83694198  0.85809940     0.18450
C3469       C  0.46961332  0.63702096  0.88927669    -0.07390
C3470       C  0.49203980  0.65358735  0.90200860    -0.18510
C3471       C  0.52167680  0.64706728  0.89776861     0.09810
C3472       C  0.53015217  0.62385283  0.87918328    -0.07310
C3473       C  0.50760296  0.60603500  0.86826086    -0.18550
C3474       C  0.47800076  0.61212119  0.87317627     0.09840
S3475       S  0.54736051  0.67026549  0.91578026    -0.33510
S3476       S  0.45199023  0.58913904  0.85539713    -0.33520
H3477       H  0.43670802  0.58358454  0.88108077     0.27850
H3478       H  0.56576956  0.64722121  0.92358802     0.27850
H3479       H  0.48642898  0.67254346  0.91486484     0.18440
H3480       H  0.51290116  0.58784830  0.85423844     0.18450
C3481       C  0.37854003  0.62451969  0.97991070    -0.07390
C3482       C  0.39168648  0.64150322  0.00174298    -0.18510
C3483       C  0.38520575  0.63742563  0.03109225     0.09810
C3484       C  0.36542125  0.61565171  0.03886838    -0.07310
C3485       C  0.35773737  0.59479971  0.01774475    -0.18550
C3486       C  0.36386073  0.59911794  0.98832419     0.09840
S3487       S  0.40206542  0.66101198  0.05741563    -0.33510
S3488       S  0.34895258  0.57370846  0.96259808    -0.33520
H3489       H  0.37386350  0.57330558  0.94516361     0.27850
H3490       H  0.40061043  0.64105650  0.08033508     0.27850
H3491       H  0.40518850  0.65960774  0.99568766     0.18440
H3492       H  0.34411297  0.57666392  0.02359008     0.18450
C3493       C  0.37713937  0.75648328  0.96904672    -0.07390
C3494       C  0.37593401  0.78440884  0.95720426    -0.18510
C3495       C  0.36874443  0.80842670  0.97439327     0.09810
C3496       C  0.36197406  0.80446991  0.00390415    -0.07310
C3497       C  0.36200884  0.77654203  0.01545718    -0.18550
C3498       C  0.37027752  0.75274048  0.99854883     0.09840
S3499       S  0.36601595  0.84329654  0.95709248    -0.33510
S3500       S  0.37150095  0.71774834  0.01542984    -0.33520
H3501       H  0.39457546  0.70806132  0.99811885     0.27850
H3502       H  0.38437878  0.85749563  0.97682539     0.27850
H3503       H  0.37898874  0.78739492  0.93418319     0.18440
H3504       H  0.35670394  0.77340089  0.03805579     0.18450
C3505       C  0.21869409  0.64044744  0.90127399    -0.07390
C3506       C  0.23294708  0.66204156  0.88549887    -0.18510
C3507       C  0.26248135  0.65927416  0.87863319     0.09810
C3508       C  0.27910007  0.63665091  0.89103072    -0.07310
C3509       C  0.26455243  0.61427950  0.90517787    -0.18550
C3510       C  0.23446226  0.61493681  0.90850374     0.09840
S3511       S  0.27756925  0.68457649  0.85335332    -0.33510
S3512       S  0.21796375  0.58251648  0.92232615    -0.33520
H3513       H  0.19655219  0.58151594  0.90072309     0.27850
H3514       H  0.29854822  0.66519034  0.84273919     0.27850
H3515       H  0.22097057  0.68081392  0.87804825     0.18440
H3516       H  0.27679686  0.59628521  0.91402269     0.18450
C3517       C  0.13550513  0.97011423  0.87553312    -0.07390
C3518       C  0.11088215  0.97487229  0.85890430    -0.18510
C3519       C  0.10063432  0.00279210  0.85439226     0.09810
C3520       C  0.11642449  0.02679163  0.86564994    -0.07310
C3521       C  0.13969466  0.02164135  0.88442997    -0.18550
C3522       C  0.14913368  0.99339199  0.88996236     0.09840
S3523       S  0.06862284  0.00567955  0.83227734    -0.33510
S3524       S  0.17920614  0.98871386  0.91442392    -0.33520
H3525       H  0.17257424  0.96024960  0.92283611     0.27850
H3526       H  0.05374393  0.02215318  0.85326439     0.27850
H3527       H  0.09991172  0.95664219  0.84877197     0.18440
H3528       H  0.15101718  0.03971476  0.89418092     0.18450
C3529       C  0.13475493  0.88651275  0.98317584    -0.07390
C3530       C  0.10842931  0.87466269  0.99197470    -0.18510
C3531       C  0.10475369  0.86564242  0.02065273     0.09810
C3532       C  0.12835071  0.86752157  0.04012075    -0.07310
C3533       C  0.15295731  0.88287503  0.03226897    -0.18550
C3534       C  0.15560697  0.89401154  0.00445507     0.09840
S3535       S  0.07092010  0.84945738  0.03121481    -0.33510
S3536       S  0.18765420  0.91473716  0.99635913    -0.33520
H3537       H  0.17641405  0.92735911  0.97101658     0.27850
H3538       H  0.05591901  0.85496547  0.00528535     0.27850
H3539       H  0.09213024  0.86951411  0.97589962     0.18440
H3540       H  0.17054715  0.88529197  0.04744741     0.18450
C3541       C  0.26242550  0.87999839  0.95552794    -0.07390
C3542       C  0.26926100  0.90923783  0.96192544    -0.18510
C3543       C  0.28803199  0.91677520  0.98506979     0.09810
C3544       C  0.29844641  0.89488737  0.00366589    -0.07310
C3545       C  0.28777426  0.86672585  0.99991948    -0.18550
C3546       C  0.27090792  0.85897209  0.97610745     0.09840
S3547       S  0.29679821  0.95447963  0.99070271    -0.33510
S3548       S  0.26147497  0.82134768  0.97314565    -0.33520
H3549       H  0.23926002  0.82423500  0.99377050     0.27850
H3550       H  0.30684037  0.95162816  0.01929936     0.27850
H3551       H  0.25911629  0.92634101  0.94963679     0.18440
H3552       H  0.29362262  0.84989014  0.01494211     0.18450
C3553       C  0.25760716  0.95541340  0.88860795    -0.07390
C3554       C  0.28379745  0.94933539  0.90247319    -0.18510
C3555       C  0.30593071  0.96961194  0.90414051     0.09810
C3556       C  0.30385536  0.99591629  0.88861345    -0.07310
C3557       C  0.27813423  0.00172112  0.87342645    -0.18550
C3558       C  0.25495372  0.98190405  0.87329376     0.09840
S3559       S  0.33627256  0.95998796  0.92642875    -0.33510
S3560       S  0.22429782  0.98883306  0.84994168    -0.33520
H3561       H  0.23452553  0.01468828  0.83759536     0.27850
H3562       H  0.33816021  0.98788992  0.93892028     0.27850
H3563       H  0.28767772  0.92811023  0.91148685     0.18440
H3564       H  0.27694171  0.02083423  0.86002557     0.18450
C3565       C  0.28723606  0.74973219  0.89647341    -0.07390
C3566       C  0.27960926  0.75819853  0.86839308    -0.18510
C3567       C  0.25574504  0.77627572  0.86375121     0.09810
C3568       C  0.24073560  0.78789144  0.88765352    -0.07310
C3569       C  0.24670266  0.77722150  0.91537343    -0.18550
C3570       C  0.26973928  0.75814200  0.92004802     0.09840
S3571       S  0.24359101  0.78117529  0.82719888    -0.33510
S3572       S  0.27749599  0.74740473  0.95674808    -0.33520
H3573       H  0.28081129  0.71776377  0.95020563     0.27850
H3574       H  0.21544082  0.79034956  0.83428981     0.27850
H3575       H  0.29197455  0.75029476  0.85002912     0.18440
H3576       H  0.23410624  0.78483144  0.93363718     0.18450
C3577       C  0.12217881  0.79147107  0.89098600    -0.07390
C3578       C  0.14168531  0.77069182  0.88029036    -0.18510
C3579       C  0.13580493  0.74095296  0.88225537     0.09810
C3580       C  0.11000889  0.73170713  0.89579439    -0.07310
C3581       C  0.08906486  0.75279180  0.90311147    -0.18550
C3582       C  0.09497490  0.78247885  0.90103787     0.09840
S3583       S  0.16274895  0.71617067  0.86846119    -0.33510
S3584       S  0.06830887  0.80768912  0.91466292    -0.33520
H3585       H  0.07666076  0.83116283  0.89728346     0.27850
H3586       H  0.14281121  0.69442707  0.86071508     0.27850
H3587       H  0.16233811  0.77757548  0.87176969     0.18440
H3588       H  0.06896242  0.74634113  0.91316897     0.18450
C3589       C  0.14118767  0.88045651  0.79444135    -0.07390
C3590       C  0.16319220  0.88538085  0.77420298    -0.18510
C3591       C  0.15715402  0.89317663  0.74542098     0.09810
C3592       C  0.12804423  0.89586303  0.73581799    -0.07310
C3593       C  0.10589511  0.89029654  0.75577923    -0.18550
C3594       C  0.11208968  0.88214735  0.78459307     0.09840
S3595       S  0.18726151  0.90266542  0.72237752    -0.33510
S3596       S  0.08181981  0.87364595  0.80749229    -0.33520
H3597       H  0.09623678  0.85144639  0.82261815     0.27850
H3598       H  0.20955759  0.89276342  0.74057098     0.27850
H3599       H  0.18540136  0.88490981  0.78140400     0.18440
H3600       H  0.08359122  0.89196210  0.74880524     0.18450
C3601       C  0.36479545  0.77833183  0.65431259    -0.07390
C3602       C  0.35095760  0.75618261  0.67001536    -0.18510
C3603       C  0.35671197  0.72676597  0.66422967     0.09810
C3604       C  0.37739245  0.71925859  0.64318967    -0.07310
C3605       C  0.38771068  0.74089777  0.62471441    -0.18550
C3606       C  0.38093963  0.77018277  0.62941352     0.09840
S3607       S  0.33796477  0.69977895  0.68492630    -0.33510
S3608       S  0.39514030  0.79586090  0.60378821    -0.33520
H3609       H  0.37148189  0.81501393  0.60615252     0.27850
H3610       H  0.34468704  0.67615534  0.66667836     0.27850
H3611       H  0.33717966  0.76165800  0.68820333     0.18440
H3612       H  0.40294683  0.73519541  0.60777830     0.18450
C3613       C  0.47237548  0.88575081  0.64481447    -0.07390
C3614       C  0.47585316  0.86295631  0.62455282    -0.18510
C3615       C  0.50316991  0.85404830  0.61437891     0.09810
C3616       C  0.52847056  0.86843932  0.62437696    -0.07310
C3617       C  0.52478830  0.89281730  0.64271618    -0.18550
C3618       C  0.49733624  0.90181190  0.65259114     0.09840
S3619       S  0.50476350  0.82305661  0.59004630    -0.33510
S3620       S  0.49598980  0.93346370  0.67564718    -0.33520
H3621       H  0.47163190  0.94534007  0.66172068     0.27850
H3622       H  0.47557783  0.81481418  0.59180112     0.27850
H3623       H  0.45700370  0.85096286  0.61754042     0.18440
H3624       H  0.54362718  0.90458707  0.65024713     0.18450
C3625       C  0.38745250  0.79663280  0.76426745    -0.07390
C3626       C  0.40873985  0.77479416  0.76558070    -0.18510
C3627       C  0.40778795  0.75252198  0.78648304     0.09810
C3628       C  0.38445819  0.75123968  0.80656304    -0.07310
C3629       C  0.36273152  0.77246478  0.80429838    -0.18550
C3630       C  0.36417563  0.79510987  0.78428112     0.09840
S3631       S  0.43840515  0.72837160  0.78760447    -0.33510
S3632       S  0.33515081  0.82124367  0.78595318    -0.33520
H3633       H  0.35357881  0.84383278  0.79504960     0.27850
H3634       H  0.42174134  0.70325860  0.78975605     0.27850
H3635       H  0.42673730  0.77543253  0.75061064     0.18440
H3636       H  0.34480551  0.77239256  0.81937554     0.18450
C3637       C  0.45071753  0.88206467  0.76326286    -0.07390
C3638       C  0.46210107  0.85594691  0.77359770    -0.18510
C3639       C  0.48023115  0.85523295  0.79790051     0.09810
C3640       C  0.48582701  0.88123668  0.81388480    -0.07310
C3641       C  0.47428800  0.90730795  0.80350665    -0.18550
C3642       C  0.45749619  0.90813158  0.77826552     0.09840
S3643       S  0.49612763  0.82031949  0.80544504    -0.33510
S3644       S  0.44837159  0.94349192  0.76472172    -0.33520
H3645       H  0.45647838  0.93648374  0.73615365     0.27850
H3646       H  0.52148793  0.83125027  0.81724355     0.27850
H3647       H  0.45745551  0.83587388  0.76211319     0.18440
H3648       H  0.48005022  0.92756412  0.81396792     0.18450
C3649       C  0.36839090  0.97509458  0.63249328    -0.07390
C3650       C  0.38938751  0.99581821  0.63994392    -0.18510
C3651       C  0.38497216  0.02543560  0.63393127     0.09810
C3652       C  0.35908182  0.03429681  0.62010796    -0.07310
C3653       C  0.34118529  0.01278106  0.60804765    -0.18550
C3654       C  0.34548686  0.98356228  0.61422861     0.09840
S3655       S  0.41223730  0.05077445  0.64564190    -0.33510
S3656       S  0.31950979  0.95825423  0.60024276    -0.33520
H3657       H  0.33976688  0.93546371  0.59947522     0.27850
H3658       H  0.40661180  0.07094508  0.62353734     0.27850
H3659       H  0.40788824  0.98937534  0.65281395     0.18440
H3660       H  0.32194712  0.01870790  0.59601864     0.18450
C3661       C  0.38039013  0.97453200  0.74592061    -0.07390
C3662       C  0.36185638  0.96541555  0.76817474    -0.18510
C3663       C  0.35640649  0.98286998  0.79240123     0.09810
C3664       C  0.36943338  0.01037053  0.79477223    -0.07310
C3665       C  0.38895140  0.01912754  0.77330992    -0.18550
C3666       C  0.39409116  0.00181899  0.74870169     0.09840
S3667       S  0.33341463  0.96855430  0.82018333    -0.33510
S3668       S  0.41679438  0.01644378  0.72089502    -0.33520
H3669       H  0.39707043  0.00903793  0.69895970     0.27850
H3670       H  0.35433737  0.97293015  0.84183305     0.27850
H3671       H  0.35184126  0.94418837  0.76701828     0.18440
H3672       H  0.39999415  0.03969771  0.77543887     0.18450
C3673       C  0.29100075  0.90302130  0.74630630    -0.07390
C3674       C  0.28054468  0.87653923  0.75617625    -0.18510
C3675       C  0.26089865  0.87537447  0.77859073     0.09810
C3676       C  0.25216894  0.90121158  0.79260008    -0.07310
C3677       C  0.26037839  0.92813754  0.78099711    -0.18550
C3678       C  0.27970605  0.92923709  0.75743984     0.09840
S3679       S  0.24788824  0.83995824  0.78796205    -0.33510
S3680       S  0.29087765  0.96360624  0.74273668    -0.33520
H3681       H  0.27264203  0.98099103  0.76001242     0.27850
H3682       H  0.22025521  0.84901386  0.79678997     0.27850
H3683       H  0.28840334  0.85638013  0.74671891     0.18440
H3684       H  0.25282769  0.94800611  0.79115272     0.18450
C3685       C  0.28547128  0.86849767  0.64285385    -0.07390
C3686       C  0.26180635  0.85764497  0.65847504    -0.18510
C3687       C  0.23325821  0.86415190  0.65085407     0.09810
C3688       C  0.22749642  0.88430676  0.62831907    -0.07310
C3689       C  0.25085503  0.89200014  0.61031427    -0.18550
C3690       C  0.27936818  0.88268037  0.61643836     0.09840
S3691       S  0.20566790  0.84617686  0.67160872    -0.33510
S3692       S  0.30622004  0.88654981  0.58867586    -0.33520
H3693       H  0.32347943  0.86321066  0.59806282     0.27850
H3694       H  0.18837993  0.84003079  0.64722177     0.27850
H3695       H  0.26540142  0.84464734  0.67763973     0.18440
H3696       H  0.24696346  0.90528339  0.59141207     0.18450
loop_ 
_geom_bond_atom_site_label_1 
_geom_bond_atom_site_label_2 
_geom_bond_distance 
_geom_bond_site_symmetry_2 
_ccdc_geom_bond_type 
O1            C9   1.259       .  A
O1          Co21   2.010       .  S
O2           C10   1.280       .  A
O2          Co22   2.037       .  S
O3           C11   1.251       .  A
O3          Co23   1.959       .  S
O4           C12   1.269       .  A
O4          Co24   1.917       .  S
O5           C11   1.272       .  A
O5          Co22   2.052       .  S
O6           C12   1.290       .  A
O6          Co21   2.098       .  S
O7           C10   1.262       .  A
O7          Co24   1.967       .  S
O8            C9   1.254       .  A
O8          Co23   1.961       .  S
C9         C3673   1.458       .  S
C10        C3637   1.486       .  S
C11        C3625   1.505       .  S
C12        C3661   1.486       .  S
O13          C26   1.266       .  A
O13         Co21   1.874       .  S
O14          C27   1.265       .  A
O14         Co22   1.961       .  S
O15          C28   1.279       .  A
O15         Co23   2.021       .  S
O16          C29   1.270       .  A
O16         Co24   2.037       .  S
O17          C29   1.258       .  A
O17         Co22   1.975       .  S
O18          C28   1.275       .  A
O18         Co21   1.991       .  S
O19          C26   1.301       .  A
O19         Co24   2.108       .  S
O20          C27   1.279       .  A
O20         Co23   2.034       .  S
Co21         O25   2.020       .  S
Co22         O25   2.052       .  S
Co23         O25   2.007       .  S
Co24         O25   2.036       .  S
C26        C3649   1.480       .  S
C27        C3601   1.495       .  S
C28        C3685   1.508       .  S
C29        C3613   1.511       .  S
O30          C38   1.280       .  A
O30         Co50   1.977       .  S
O31          C39   1.252       .  A
O31         Co51   1.984       .  S
O32          C40   1.262       .  A
O32         Co52   1.989       .  S
O33          C41   1.263       .  A
O33         Co53   2.019       .  S
O34          C40   1.256       .  A
O34         Co51   1.975       .  S
O35          C41   1.263       .  A
O35         Co50   1.990       .  S
O36          C39   1.248       .  A
O36         Co53   1.983       .  S
O37          C38   1.282       .  A
O37         Co52   1.966       .  S
C38        C3676   1.466       .  S
C39        C3577   1.469       .  S
C40        C3568   1.471       .  S
C41        C3589   1.505       .  S
O42          C55   1.273       .  A
O42         Co50   2.001       .  S
O43          C56   1.250       .  A
O43         Co51   1.946       .  S
O44          C57   1.276       .  A
O44         Co52   2.040       .  S
O45          C58   1.280       .  A
O45         Co53   2.041       .  S
O46          C58   1.254       .  A
O46         Co51   1.911       .  S
O47          C57   1.243       .  A
O47         Co50   1.991       .  S
O48          C55   1.260       .  A
O48         Co53   1.953       .  S
O49          C56   1.295       .  A
O49         Co52   2.100       .  S
Co50         O54   2.058       .  S
Co51         O54   2.074       .  S
Co52         O54   2.038       .  S
Co53         O54   2.077       .  S
C55        C3517   1.447       .  S
C56        C3541   1.504       .  S
C57        C3553   1.486       .  S
C58        C3529   1.468       .  S
O59          C67   1.255       .  A
O59         Co79   1.982       .  S
O60          C68   1.260       .  A
O60         Co80   2.017       .  S
O61          C69   1.303       .  A
O61         Co81   2.103       .  S
O62          C70   1.268       .  A
O62         Co82   1.955       .  S
O63          C69   1.251       .  A
O63         Co80   1.914       .  S
O64          C70   1.281       .  A
O64         Co79   2.024       .  S
O65          C68   1.253       .  A
O65         Co82   1.974       .  S
O66          C67   1.279       .  A
O66         Co81   2.072       .  S
C67        C3628   1.509       .  S
C68        C3508   1.486       .  S
C69        C3445   1.478       .  S
C70        C3565   1.463       .  S
O71          C84   1.254       .  A
O71         Co79   1.994       .  S
O72          C85   1.279       .  A
O72         Co80   2.057       .  S
O73          C86   1.279       .  A
O73         Co81   1.970       .  S
O74          C87   1.255       .  A
O74         Co82   1.949       .  S
O75          C87   1.276       .  A
O75         Co80   2.043       .  S
O76          C86   1.281       .  A
O76         Co79   1.975       .  S
O77          C84   1.241       .  A
O77         Co82   1.947       .  S
O78          C85   1.257       .  A
O78         Co81   1.961       .  S
Co79         O83   2.057       .  S
Co80         O83   2.092       .  S
Co81         O83   2.027       .  S
Co82         O83   2.074       .  S
C84        C3493   1.462       .  S
C85        C3469   1.522       .  S
C86        C3457   1.457       .  S
C87        C3481   1.489       .  S
O88          C96   1.300       .  A
O88        Co108   2.111       .  S
O89          C97   1.282       .  A
O89        Co109   2.045       .  S
O90          C98   1.271       .  A
O90        Co110   1.963       .  S
O91          C99   1.250       .  A
O91        Co111   1.965       .  S
O92          C98   1.272       .  A
O92        Co109   2.008       .  S
O93          C99   1.261       .  A
O93        Co108   1.999       .  S
O94          C97   1.250       .  A
O94        Co111   1.920       .  S
O95          C96   1.265       .  A
O95        Co110   1.877       .  S
C96        C3556   1.489   1_545  S
C97        C3421   1.463       .  S
C98        C3433   1.461       .  S
C99        C3373   1.468       .  S
O100        C113   1.262       .  A
O100       Co108   1.948       .  S
O101        C114   1.246       .  A
O101       Co109   1.948       .  S
O102        C115   1.284       .  A
O102       Co110   2.098       .  S
O103        C116   1.268       .  A
O103       Co111   2.082       .  S
O104        C116   1.231       .  A
O104       Co109   1.931       .  S
O105        C115   1.260       .  A
O105       Co108   1.923       .  S
O106        C113   1.276       .  A
O106       Co111   2.026       .  S
O107        C114   1.259       .  A
O107       Co110   1.989       .  S
Co108       O112   1.990       .  S
Co109       O112   1.992       .  S
Co110       O112   2.006       .  S
Co111       O112   2.088       .  S
C113       C3385   1.476       .  S
C114       C3412   1.444       .  S
C115       C3664   1.476       .  S
C116       C3397   1.504       .  S
O117        C125   1.262       .  A
O117       Co137   2.024       .  S
O118        C126   1.282       .  A
O118       Co138   2.012       .  S
O119        C127   1.246       .  A
O119       Co139   1.928       .  S
O120        C128   1.262       .  A
O120       Co140   2.006       .  S
O121        C127   1.285       .  A
O121       Co138   2.069       .  S
O122        C128   1.256       .  A
O122       Co137   1.989       .  S
O123        C126   1.273       .  A
O123       Co140   2.014       .  S
O124        C125   1.245       .  A
O124       Co139   1.943       .  S
C125       C3496   1.459       .  S
C126       C3337   1.481       .  S
C127       C3352   1.477       .  S
C128       C3313   1.489       .  S
O129        C142   1.265       .  A
O129       Co137   1.866       .  S
O130        C143   1.258       .  A
O130       Co138   1.867       .  S
O131        C144   1.266       .  A
O131       Co139   2.015       .  S
O132        C145   1.264       .  A
O132       Co140   2.040       .  S
O133        C145   1.245       .  A
O133       Co138   1.962       .  S
O134        C144   1.263       .  A
O134       Co137   1.983       .  S
O135        C142   1.300       .  A
O135       Co140   2.102       .  S
O136        C143   1.292       .  A
O136       Co139   2.084       .  S
Co137       O141   1.974       .  S
Co138       O141   1.944       .  S
Co139       O141   2.121       .  S
Co140       O141   2.144       .  S
C142       C3325   1.468       .  S
C143       C3436   1.474       .  S
C144       C3544   1.488       .  S
C145       C3361   1.490       .  S
O146        C154   1.246       .  A
O146       Co166   1.961       .  S
O147        C155   1.252       .  A
O147       Co167   1.965       .  S
O148        C156   1.276       .  A
O148       Co168   2.045       .  S
O149        C157   1.268       .  A
O149       Co169   2.072       .  S
O150        C156   1.263       .  A
O150       Co167   1.923       .  S
O151        C157   1.237       .  A
O151       Co166   1.941       .  S
O152        C155   1.269       .  A
O152       Co169   2.035       .  S
O153        C154   1.264       .  A
O153       Co168   2.039       .  S
C154       C3640   1.486       .  S
C155       C3289   1.485       .  S
C156       C3409   1.461       .  S
C157       C3277   1.499       .  S
O158        C171   1.276       .  A
O158       Co166   2.023       .  S
O159        C172   1.306       .  A
O159       Co167   2.106       .  S
O160        C173   1.263       .  A
O160       Co168   1.961       .  S
O161        C174   1.275       .  A
O161       Co169   2.019       .  S
O162        C174   1.288       .  A
O162       Co167   2.011       .  S
O163        C173   1.282       .  A
O163       Co166   2.043       .  S
O164        C171   1.265       .  A
O164       Co169   1.966       .  S
O165        C172   1.267       .  A
O165       Co168   1.920       .  S
Co166       O170   1.981       .  S
Co167       O170   1.988       .  S
Co168       O170   2.050       .  S
Co169       O170   2.101       .  S
C171       C3265   1.473       .  S
C172       C3349   1.472       .  S
C173       C3460   1.493       .  S
C174       C3301   1.480       .  S
O175        C183   1.308       .  A
O175       Co195   2.121       .  S
O176        C184   1.263       .  A
O176       Co196   2.007       .  S
O177        C185   1.266       .  A
O177       Co197   1.972       .  S
O178        C186   1.276       .  A
O178       Co198   1.903       .  S
O179        C185   1.267       .  A
O179       Co196   2.001       .  S
O180        C186   1.285       .  A
O180       Co195   2.049       .  S
O181        C184   1.266       .  A
O181       Co198   2.012       .  S
O182        C183   1.284       .  A
O182       Co197   1.894       .  S
C183       C3244   1.485       .  S
C184       C3205   1.503       .  S
C185       C3229   1.491       .  S
C186       C3181   1.466       .  S
O187        C200   1.269       .  A
O187       Co195   1.887       .  S
O188        C201   1.268       .  A
O188       Co196   1.946       .  S
O189        C202   1.255       .  A
O189       Co197   2.013       .  S
O190        C203   1.279       .  A
O190       Co198   2.035       .  S
O191        C203   1.268       .  A
O191       Co196   1.981       .  S
O192        C202   1.255       .  A
O192       Co195   1.988       .  S
O193        C200   1.304       .  A
O193       Co198   2.086       .  S
O194        C201   1.287       .  A
O194       Co197   2.009       .  S
Co195       O199   2.027       .  S
Co196       O199   2.037       .  S
Co197       O199   1.906       .  S
Co198       O199   1.978       .  S
C200       C3193   1.478       .  S
C201       C3217   1.452       .  S
C202       C3253   1.490       .  S
C203       C3169   1.494       .  S
O204        C212   1.262       .  A
O204       Co224   1.962       .  S
O205        C213   1.278       .  A
O205       Co225   2.035       .  S
O206        C214   1.258       .  A
O206       Co226   1.977       .  S
O207        C215   1.314       .  A
O207       Co227   2.149       .  S
O208        C214   1.276       .  A
O208       Co225   2.019       .  S
O209        C215   1.265       .  A
O209       Co224   1.894       .  S
O210        C213   1.284       .  A
O210       Co227   1.992       .  S
O211        C212   1.286       .  A
O211       Co226   2.071       .  S
C212       C3241   1.489       .  S
C213       C3145   1.482       .  S
C214       C3157   1.488       .  S
C215       C3133   1.483       .  S
O216        C229   1.284       .  A
O216       Co224   2.090       .  S
O217        C230   1.282       .  A
O217       Co225   2.066       .  S
O218        C231   1.241       .  A
O218       Co226   1.934       .  S
O219        C232   1.256       .  A
O219       Co227   1.972       .  S
O220        C232   1.267       .  A
O220       Co225   2.029       .  S
O221        C231   1.262       .  A
O221       Co224   2.047       .  S
O222        C229   1.257       .  A
O222       Co227   1.889       .  S
O223        C230   1.253       .  A
O223       Co226   1.952       .  S
Co224       O228   2.046       .  S
Co225       O228   2.074       .  S
Co226       O228   1.976       .  S
Co227       O228   1.964       .  S
C229       C3109   1.470       .  S
C230       C3085   1.502       .  S
C231       C3121   1.466       .  S
C232       C3097   1.493       .  S
O233        C241   1.290       .  A
O233       Co253   2.096       .  S
O234        C242   1.267       .  A
O234       Co254   1.994       .  S
O235        C243   1.271       .  A
O235       Co255   1.968       .  S
O236        C244   1.265       .  A
O236       Co256   1.994       .  S
O237        C243   1.285       .  A
O237       Co254   2.042       .  S
O238        C244   1.274       .  A
O238       Co253   2.012       .  S
O239        C242   1.262       .  A
O239       Co256   1.982       .  S
O240        C241   1.264       .  A
O240       Co255   1.867       .  S
C241       C3184   1.451       .  S
C242       C3076   1.480       .  S
C243       C3136   1.500       .  S
C244       C3013   1.500       .  S
O245        C258   1.265       .  A
O245       Co253   1.969       .  S
O246        C259   1.252       .  A
O246       Co254   1.972       .  S
O247        C260   1.292       .  A
O247       Co255   2.097       .  S
O248        C261   1.282       .  A
O248       Co256   2.062       .  S
O249        C261   1.247       .  A
O249       Co254   1.931       .  S
O250        C260   1.271       .  A
O250       Co253   1.880       .  S
O251        C258   1.277       .  A
O251       Co256   2.041       .  S
O252        C259   1.258       .  A
O252       Co255   2.003       .  S
Co253       O257   1.973       .  S
Co254       O257   1.994       .  S
Co255       O257   1.975       .  S
Co256       O257   2.057       .  S
C258       C3037   1.506       .  S
C259       C3061   1.475       .  S
C260       C3028   1.483       .  S
C261       C3052   1.485       .  S
O262        C270   1.246       .  A
O262       Co282   1.967       .  S
O263        C271   1.290       .  A
O263       Co283   1.999       .  S
O264        C272   1.255       .  A
O264       Co284   2.010       .  S
O265        C273   1.271       .  A
O265       Co285   2.000       .  S
O266        C272   1.264       .  A
O266       Co283   1.994       .  S
O267        C273   1.273       .  A
O267       Co282   2.007       .  S
O268        C271   1.275       .  A
O268       Co285   2.017       .  S
O269        C270   1.255       .  A
O269       Co284   1.976       .  S
C270       C3232   1.473   1_455  S
C271       C2965   1.470       .  S
C272       C2980   1.472       .  S
C273       C2941   1.491       .  S
O274        C287   1.249       .  A
O274       Co282   1.991       .  S
O275        C288   1.267       .  A
O275       Co283   1.922       .  S
O276        C289   1.285       .  A
O276       Co284   2.023       .  S
O277        C290   1.262       .  A
O277       Co285   2.029       .  S
O278        C290   1.245       .  A
O278       Co283   1.960       .  S
O279        C289   1.273       .  A
O279       Co282   1.911       .  S
O280        C287   1.262       .  A
O280       Co285   2.025       .  S
O281        C288   1.288       .  A
O281       Co284   2.056       .  S
Co282       O286   1.911       .  S
Co283       O286   1.922       .  S
Co284       O286   2.238       .  S
Co285       O286   2.106       .  S
C287       C2953   1.489       .  S
C288       C3001   1.493       .  S
C289       C3124   1.464   1_455  S
C290       C2989   1.479       .  S
O291        C299   1.265       .  A
O291       Co311   1.909       .  S
O292        C300   1.275       .  A
O292       Co312   2.000       .  S
O293        C301   1.252       .  A
O293       Co313   1.965       .  S
O294        C302   1.263       .  A
O294       Co314   1.976       .  S
O295        C301   1.257       .  A
O295       Co312   1.991       .  S
O296        C302   1.255       .  A
O296       Co311   1.978       .  S
O297        C300   1.270       .  A
O297       Co314   1.994       .  S
O298        C299   1.287       .  A
O298       Co313   2.058       .  S
C299       C3112   1.452       .  S
C300       C2929   1.479       .  S
C301       C3004   1.479       .  S
C302       C2881   1.467       .  S
O303        C316   1.260       .  A
O303       Co311   1.973       .  S
O304        C317   1.274       .  A
O304       Co312   1.886       .  S
O305        C318   1.266       .  A
O305       Co313   1.883       .  S
O306        C319   1.261       .  A
O306       Co314   1.995       .  S
O307        C319   1.258       .  A
O307       Co312   1.983       .  S
O308        C318   1.298       .  A
O308       Co311   2.078       .  S
O309        C316   1.274       .  A
O309       Co314   2.031       .  S
O310        C317   1.300       .  A
O310       Co313   2.090       .  S
Co311       O315   2.000       .  S
Co312       O315   1.896       .  S
Co313       O315   2.072       .  S
Co314       O315   2.077       .  S
C316       C2893   1.504       .  S
C317       C2917   1.472       .  S
C318       C3064   1.463   1_554  S
C319       C2905   1.479       .  S
O320        C328   1.249       .  A
O320       Co340   1.950       .  S
O321        C329   1.252       .  A
O321       Co341   1.960       .  S
O322        C330   1.288       .  A
O322       Co342   2.105       .  S
O323        C331   1.264       .  A
O323       Co343   2.054       .  S
O324        C330   1.252       .  A
O324       Co341   1.904       .  S
O325        C331   1.243       .  A
O325       Co340   1.948       .  S
O326        C329   1.261       .  A
O326       Co343   2.020       .  S
O327        C328   1.269       .  A
O327       Co342   2.028       .  S
C328       C3025   1.468       .  S
C329       C2869   1.484       .  S
C330       C2920   1.476       .  S
C331       C2836   1.491       .  S
O332        C345   1.285       .  A
O332       Co340   2.043       .  S
O333        C346   1.314       .  A
O333       Co341   2.133       .  S
O334        C347   1.275       .  A
O334       Co342   1.995       .  S
O335        C348   1.271       .  A
O335       Co343   2.016       .  S
O336        C348   1.284       .  A
O336       Co341   2.009       .  S
O337        C347   1.275       .  A
O337       Co340   2.031       .  S
O338        C345   1.267       .  A
O338       Co343   1.957       .  S
O339        C346   1.273       .  A
O339       Co342   1.885       .  S
Co340       O344   1.975       .  S
Co341       O344   1.976       .  S
Co342       O344   2.052       .  S
Co343       O344   2.107       .  S
C345       C2845   1.472       .  S
C346       C2977   1.473       .  S
C347       C3208   1.516       .  S
C348       C2857   1.478       .  S
O349        C357   1.284       .  A
O349       Co369   2.077       .  S
O350        C358   1.269       .  A
O350       Co370   2.039       .  S
O351        C359   1.259       .  A
O351       Co371   1.940       .  S
O352        C360   1.242       .  A
O352       Co372   1.940       .  S
O353        C359   1.280       .  A
O353       Co370   2.036       .  S
O354        C360   1.259       .  A
O354       Co369   2.000       .  S
O355        C358   1.244       .  A
O355       Co372   1.930       .  S
O356        C357   1.269       .  A
O356       Co371   1.929       .  S
C357       C2809   1.485       .  S
C358       C2773   1.467       .  S
C359       C2785   1.472       .  S
C360       C2761   1.454       .  S
O361        C374   1.271       .  A
O361       Co369   1.967       .  S
O362        C375   1.249       .  A
O362       Co370   1.957       .  S
O363        C376   1.293       .  A
O363       Co371   2.094       .  S
O364        C377   1.273       .  A
O364       Co372   2.029       .  S
O365        C377   1.262       .  A
O365       Co370   1.960       .  S
O366        C376   1.258       .  A
O366       Co369   1.860       .  S
O367        C374   1.279       .  A
O367       Co372   2.031       .  S
O368        C375   1.266       .  A
O368       Co371   2.019       .  S
Co369       O373   1.982       .  S
Co370       O373   2.020       .  S
Co371       O373   2.033       .  S
Co372       O373   1.997       .  S
C374       C2737   1.479       .  S
C375       C2797   1.479       .  S
C376       C2821   1.459       .  S
C377       C2752   1.493       .  S
O378        C386   1.258       .  A
O378       Co398   2.011       .  S
O379        C387   1.241       .  A
O379       Co399   1.952       .  S
O380        C388   1.251       .  A
O380       Co400   2.003       .  S
O381        C389   1.261       .  A
O381       Co401   1.966       .  S
O382        C388   1.243       .  A
O382       Co399   1.962       .  S
O383        C389   1.272       .  A
O383       Co398   2.021       .  S
O384        C387   1.262       .  A
O384       Co401   2.038       .  S
O385        C386   1.246       .  A
O385       Co400   1.983       .  S
C386       C2713   1.485       .  S
C387       C2689   1.492       .  S
C388       C2677   1.459       .  S
C389       C2701   1.476       .  S
O390        C403   1.238       .  A
O390       Co398   1.952       .  S
O391        C404   1.275       .  A
O391       Co399   2.033       .  S
O392        C405   1.260       .  A
O392       Co400   1.919       .  S
O393        C406   1.264       .  A
O393       Co401   1.974       .  S
O394        C406   1.273       .  A
O394       Co399   2.027       .  S
O395        C405   1.280       .  A
O395       Co398   2.036       .  S
O396        C403   1.255       .  A
O396       Co401   2.045       .  S
O397        C404   1.261       .  A
O397       Co400   1.987       .  S
Co398       O402   2.165       .  S
Co399       O402   2.065       .  S
Co400       O402   2.011       .  S
Co401       O402   2.176       .  S
C403       C2725   1.490       .  S
C404       C2665   1.503       .  S
C405       C2788   1.472       .  S
C406       C2653   1.493       .  S
O407        C415   1.253       .  A
O407       Co427   2.002       .  S
O408        C416   1.240       .  A
O408       Co428   1.949       .  S
O409        C417   1.263       .  A
O409       Co429   2.026       .  S
O410        C418   1.266       .  A
O410       Co430   1.976       .  S
O411        C417   1.255       .  A
O411       Co428   1.990       .  S
O412        C418   1.277       .  A
O412       Co427   2.028       .  S
O413        C416   1.257       .  A
O413       Co430   2.047       .  S
O414        C415   1.242       .  A
O414       Co429   1.967       .  S
C415       C2812   1.490       .  S
C416       C2608   1.497       .  S
C417       C2668   1.483       .  S
C418       C2641   1.490       .  S
O419        C432   1.241       .  A
O419       Co427   1.963       .  S
O420        C433   1.270       .  A
O420       Co428   2.035       .  S
O421        C434   1.267       .  A
O421       Co429   1.950       .  S
O422        C435   1.261       .  A
O422       Co430   1.965       .  S
O423        C435   1.275       .  A
O423       Co428   2.029       .  S
O424        C434   1.272       .  A
O424       Co427   2.021       .  S
O425        C432   1.256       .  A
O425       Co430   2.044       .  S
O426        C433   1.262       .  A
O426       Co429   1.986       .  S
Co427       O431   2.153       .  S
Co428       O431   2.073       .  S
Co429       O431   2.011       .  S
Co430       O431   2.175       .  S
C432       C2617   1.507       .  S
C433       C2581   1.492       .  S
C434       C2629   1.471       .  S
C435       C2593   1.473       .  S
O436        C444   1.277       .  A
O436       Co456   2.040       .  S
O437        C445   1.252       .  A
O437       Co457   1.931       .  S
O438        C446   1.257       .  A
O438       Co458   2.011       .  S
O439        C447   1.255       .  A
O439       Co459   1.956       .  S
O440        C446   1.248       .  A
O440       Co457   1.979       .  S
O441        C447   1.273       .  A
O441       Co456   2.012       .  S
O442        C445   1.277       .  A
O442       Co459   2.046       .  S
O443        C444   1.277   1_655  A
O443       Co458   1.935   1_655  S
C444       C2776   1.473   1_455  S
C445       C2533   1.486       .  S
C446       C2548   1.479       .  S
C447       C2509   1.473       .  S
O448        C461   1.247       .  A
O448       Co456   1.982       .  S
O449        C462   1.262       .  A
O449       Co457   1.948       .  S
O450        C463   1.290       .  A
O450       Co458   2.099       .  S
O451        C464   1.259       .  A
O451       Co459   1.997       .  S
O452        C464   1.255       .  A
O452       Co457   1.974       .  S
O453        C463   1.264       .  A
O453       Co456   1.939       .  S
O454        C461   1.266       .  A
O454       Co459   2.051       .  S
O455        C462   1.281       .  A
O455       Co458   2.034       .  S
Co456       O460   2.003       .  S
Co457       O460   2.061       .  S
Co458       O460   2.058       .  S
Co459       O460   2.112       .  S
C461       C2524   1.492       .  S
C462       C2572   1.461       .  S
C463       C2716   1.492       .  S
C464       C2557   1.473       .  S
O465        C473   1.256       .  A
O465       Co485   2.000       .  S
O466        C474   1.278       .  A
O466       Co486   2.005       .  S
O467        C475   1.275       .  A
O467       Co487   1.913       .  S
O468        C476   1.266       .  A
O468       Co488   1.977       .  S
O469        C475   1.300       .  A
O469       Co486   2.084       .  S
O470        C476   1.272       .  A
O470       Co485   2.003       .  S
O471        C474   1.271       .  A
O471       Co488   1.977       .  S
O472        C473   1.251       .  A
O472       Co487   1.982       .  S
C473       C2632   1.490       .  S
C474       C2485   1.474       .  S
C475       C2497   1.492   1_545  S
C476       C2461   1.469       .  S
O477        C490   1.255       .  A
O477       Co485   1.955       .  S
O478        C491   1.269       .  A
O478       Co486   1.898       .  S
O479        C492   1.313       .  A
O479       Co487   2.129       .  S
O480        C493   1.258       .  A
O480       Co488   2.016       .  S
O481        C493   1.246       .  A
O481       Co486   1.982       .  S
O482        C492   1.263       .  A
O482       Co485   1.823       .  S
O483        C490   1.279       .  A
O483       Co488   2.055       .  S
O484        C491   1.295       .  A
O484       Co487   2.074       .  S
Co485       O489   1.878       .  S
Co486       O489   1.954       .  S
Co487       O489   2.050       .  S
Co488       O489   2.072       .  S
C490       C2449   1.508       .  S
C491       C2545   1.481       .  S
C492       C2764   1.474       .  S
C493       C2473   1.492       .  S
O494        C502   1.274       .  A
O494       Co514   1.910       .  S
O495        C503   1.252       .  A
O495       Co515   2.000       .  S
O496        C504   1.288       .  A
O496       Co516   2.044       .  S
O497        C505   1.271       .  A
O497       Co517   2.056       .  S
O498        C504   1.270       .  A
O498       Co515   1.902       .  S
O499        C505   1.248       .  A
O499       Co514   1.998       .  S
O500        C503   1.275       .  A
O500       Co517   2.074       .  S
O501        C502   1.289       .  A
O501       Co516   2.030       .  S
C502       C2680   1.461       .  S
C503       C2425   1.515       .  S
C504       C2569   1.474       .  S
C505       C2401   1.513       .  S
O506        C519   1.272       .  A
O506       Co514   2.017       .  S
O507        C520   1.247       .  A
O507       Co515   1.987       .  S
O508        C521   1.246       .  A
O508       Co516   1.980       .  S
O509        C522   1.261       .  A
O509       Co517   1.992       .  S
O510        C522   1.266       .  A
O510       Co515   1.997       .  S
O511        C521   1.254       .  A
O511       Co514   2.001       .  S
O512        C519   1.264       .  A
O512       Co517   1.994       .  S
O513        C520   1.255       .  A
O513       Co516   1.995       .  S
Co514       O518   1.938       .  S
Co515       O518   1.932       .  S
Co516       O518   2.263       .  S
Co517       O518   2.126       .  S
C519       C2413   1.487       .  S
C520       C2500   1.493       .  S
C521       C2584   1.501       .  S
C522       C2437   1.476       .  S
O523        C531   1.253       .  A
O523       Co543   1.971       .  S
O524        C532   1.271       .  A
O524       Co544   1.989       .  S
O525        C533   1.285       .  A
O525       Co545   2.075       .  S
O526        C534   1.267       .  A
O526       Co546   2.023       .  S
O527        C533   1.266       .  A
O527       Co544   1.905       .  S
O528        C534   1.250       .  A
O528       Co543   1.941       .  S
O529        C532   1.279       .  A
O529       Co546   2.033       .  S
O530        C531   1.267       .  A
O530       Co545   2.041       .  S
C531       C2389   1.487       .  S
C532       C2353   1.508       .  S
C533       C2368   1.474       .  S
C534       C2380   1.460       .  S
O535        C548   1.277       .  A
O535       Co543   2.030       .  S
O536        C549   1.294       .  A
O536       Co544   2.093       .  S
O537        C550   1.267       .  A
O537       Co545   1.976       .  S
O538        C551   1.259       .  A
O538       Co546   1.987       .  S
O539        C551   1.263       .  A
O539       Co544   2.001       .  S
O540        C550   1.279       .  A
O540       Co543   2.035       .  S
O541        C548   1.262       .  A
O541       Co546   1.955       .  S
O542        C549   1.268       .  A
O542       Co545   1.892       .  S
Co543       O547   2.021       .  S
Co544       O547   2.003       .  S
Co545       O547   2.032       .  S
Co546       O547   2.070       .  S
C548       C2476   1.473       .  S
C549       C2341   1.492       .  S
C550       C2536   1.493       .  S
C551       C2329   1.493       .  S
O552        C560   1.276       .  A
O552       Co572   2.024       .  S
O553        C561   1.260       .  A
O553       Co573   2.002       .  S
O554        C562   1.265       .  A
O554       Co574   1.900       .  S
O555        C563   1.256       .  A
O555       Co575   1.963       .  S
O556        C562   1.292       .  A
O556       Co573   2.099       .  S
O557        C563   1.274       .  A
O557       Co572   2.032       .  S
O558        C561   1.256       .  A
O558       Co575   1.969       .  S
O559        C560   1.266       .  A
O559       Co574   1.962       .  S
C560       C2320   1.479       .  S
C561       C2284   1.473       .  S
C562       C2305   1.477       .  S
C563       C2296   1.487       .  S
O564        C577   1.261       .  A
O564       Co572   1.959       .  S
O565        C578   1.263       .  A
O565       Co573   1.855       .  S
O566        C579   1.262       .  A
O566       Co574   2.013       .  S
O567        C580   1.280       .  A
O567       Co575   2.033       .  S
O568        C580   1.270       .  A
O568       Co573   1.977       .  S
O569        C579   1.263       .  A
O569       Co572   1.985       .  S
O570        C577   1.274       .  A
O570       Co575   2.021       .  S
O571        C578   1.297       .  A
O571       Co574   2.100       .  S
Co572       O576   2.030       .  S
Co573       O576   1.986       .  S
Co574       O576   2.013       .  S
Co575       O576   2.030       .  S
C577       C2464   1.472       .  S
C578       C2272   1.463       .  S
C579       C2620   1.500       .  S
C580       C2257   1.502       .  S
O581        C589   1.265       .  A
O581       Co601   2.025       .  S
O582        C590   1.283       .  A
O582       Co602   2.074       .  S
O583        C591   1.252       .  A
O583       Co603   1.958       .  S
O584        C592   1.261       .  A
O584       Co604   1.964       .  S
O585        C591   1.266       .  A
O585       Co602   2.027       .  S
O586        C592   1.273       .  A
O586       Co601   2.026       .  S
O587        C590   1.269       .  A
O587       Co604   1.910       .  S
O588        C589   1.247       .  A
O588       Co603   1.947       .  S
C589       C2224   1.465       .  S
C590       C2209   1.462       .  S
C591       C2233   1.480       .  S
C592       C2248   1.477       .  S
O593        C606   1.248       .  A
O593       Co601   1.961       .  S
O594        C607   1.271       .  A
O594       Co602   1.973       .  S
O595        C608   1.279       .  A
O595       Co603   2.039       .  S
O596        C609   1.293       .  A
O596       Co604   2.076       .  S
O597        C609   1.273       .  A
O597       Co602   1.911       .  S
O598        C608   1.255       .  A
O598       Co601   1.940       .  S
O599        C606   1.271       .  A
O599       Co604   2.047       .  S
O600        C607   1.277       .  A
O600       Co603   2.015       .  S
Co601       O605   2.048       .  S
Co602       O605   2.027       .  S
Co603       O605   2.005       .  S
Co604       O605   2.015       .  S
C606       C2749   1.488       .  S
C607       C3328   1.473       .  S
C608       C3532   1.463       .  S
C609       C2512   1.498       .  S
O610        C618   1.295       .  A
O610       Co630   2.112       .  S
O611        C619   1.265       .  A
O611       Co631   2.018       .  S
O612        C620   1.263       .  A
O612       Co632   1.967       .  S
O613        C621   1.248       .  A
O613       Co633   1.956       .  S
O614        C620   1.273       .  A
O614       Co631   2.004       .  S
O615        C621   1.262       .  A
O615       Co630   2.039       .  S
O616        C619   1.248       .  A
O616       Co633   1.941       .  S
O617        C618   1.262       .  A
O617       Co632   1.911       .  S
C618       C2197   1.501       .  S
C619       C2173   1.468       .  S
C620       C2212   1.478       .  S
C621       C2185   1.490       .  S
O622        C635   1.267       .  A
O622       Co630   1.955       .  S
O623        C636   1.260       .  A
O623       Co631   1.977       .  S
O624        C637   1.288       .  A
O624       Co632   2.065       .  S
O625        C638   1.280       .  A
O625       Co633   2.050       .  S
O626        C638   1.268       .  A
O626       Co631   1.984       .  S
O627        C637   1.272       .  A
O627       Co630   1.924       .  S
O628        C635   1.284       .  A
O628       Co633   2.028       .  S
O629        C636   1.270       .  A
O629       Co632   1.997       .  S
Co630       O634   2.065       .  S
Co631       O634   2.079       .  S
Co632       O634   1.996       .  S
Co633       O634   1.990       .  S
C635       C2149   1.467       .  S
C636       C2521   1.490       .  S
C637       C2704   1.496       .  S
C638       C2161   1.501       .  S
O639        C647   1.265       .  A
O639       Co659   1.988       .  S
O640        C648   1.250       .  A
O640       Co660   2.031       .  S
O641        C649   1.287       .  A
O641       Co661   2.067       .  S
O642        C650   1.260       .  A
O642       Co662   2.002       .  S
O643        C649   1.271       .  A
O643       Co660   1.918       .  S
O644        C650   1.244       .  A
O644       Co659   1.950       .  S
O645        C648   1.243       .  A
O645       Co662   1.990       .  S
O646        C647   1.266       .  A
O646       Co661   2.000       .  S
C647       C2128   1.489       .  S
C648       C2293   1.486       .  S
C649       C2137   1.474       .  S
C650       C2113   1.475       .  S
O651        C664   1.271       .  A
O651       Co659   1.988       .  S
O652        C665   1.297       .  A
O652       Co660   2.085       .  S
O653        C666   1.265       .  A
O653       Co661   2.016       .  S
O654        C667   1.264       .  A
O654       Co662   1.964       .  S
O655        C667   1.286       .  A
O655       Co660   2.065       .  S
O656        C666   1.255       .  A
O656       Co659   1.981       .  S
O657        C664   1.257       .  A
O657       Co662   1.955       .  S
O658        C665   1.268       .  A
O658       Co661   1.902       .  S
Co659       O663   2.087       .  S
Co660       O663   2.032       .  S
Co661       O663   2.052       .  S
Co662       O663   2.094       .  S
C664       C2884   1.482       .  S
C665       C2740   1.470       .  S
C666       C3100   1.494       .  S
C667       C2452   1.501       .  S
O668        C676   1.251       .  A
O668       Co688   1.962       .  S
O669        C677   1.270       .  A
O669       Co689   1.970       .  S
O670        C678   1.294       .  A
O670       Co690   2.126       .  S
O671        C679   1.270       .  A
O671       Co691   2.034       .  S
O672        C678   1.267       .  A
O672       Co689   1.900       .  S
O673        C679   1.250       .  A
O673       Co688   1.936       .  S
O674        C677   1.270       .  A
O674       Co691   2.008       .  S
O675        C676   1.261       .  A
O675       Co690   2.007       .  S
C676       C2077   1.456       .  S
C677       C2065   1.477       .  S
C678       C2089   1.494       .  S
C679       C2104   1.483       .  S
O680        C693   1.276       .  A
O680       Co688   2.023       .  S
O681        C694   1.305       .  A
O681       Co689   2.129       .  S
O682        C695   1.279       .  A
O682       Co690   1.992       .  S
O683        C696   1.274       .  A
O683       Co691   2.003       .  S
O684        C696   1.272       .  A
O684       Co689   2.024       .  S
O685        C695   1.273       .  A
O685       Co688   2.013       .  S
O686        C693   1.275       .  A
O686       Co691   1.982       .  S
O687        C694   1.269       .  A
O687       Co690   1.867       .  S
Co688       O692   2.010       .  S
Co689       O692   1.992       .  S
Co690       O692   2.012       .  S
Co691       O692   2.074       .  S
C693       C2692   1.502       .  S
C694       C2848   1.484       .  S
C695       C3172   1.503       .  S
C696       C2404   1.523       .  S
O697        C705   1.257       .  A
O697       Co717   1.890       .  S
O698        C706   1.251       .  A
O698       Co718   1.955       .  S
O699        C707   1.247       .  A
O699       Co719   1.984       .  S
O700        C708   1.275       .  A
O700       Co720   2.040       .  S
O701        C707   1.251       .  A
O701       Co718   1.971       .  S
O702        C708   1.262       .  A
O702       Co717   1.972       .  S
O703        C706   1.264       .  A
O703       Co720   2.008       .  S
O704        C705   1.298       .  A
O704       Co719   2.124       .  S
C705       C2029   1.484       .  S
C706       C2044   1.457       .  S
C707       C2053   1.462       .  S
C708       C2020   1.499       .  S
O709        C722   1.258       .  A
O709       Co717   1.976       .  S
O710        C723   1.284       .  A
O710       Co718   2.053       .  S
O711        C724   1.256       .  A
O711       Co719   1.855       .  S
O712        C725   1.271       .  A
O712       Co720   1.975       .  S
O713        C725   1.278       .  A
O713       Co718   2.022       .  S
O714        C724   1.300       .  A
O714       Co717   2.100       .  S
O715        C722   1.262       .  A
O715       Co720   1.981       .  S
O716        C723   1.275       .  A
O716       Co719   1.989       .  S
Co717       O721   1.996       .  S
Co718       O721   2.006       .  S
Co719       O721   2.016       .  S
Co720       O721   2.083       .  S
C722       C3376   1.472       .  S
C723       C3088   1.501       .  S
C724       C3520   1.470       .  S
C725       C2956   1.488       .  S
O726        C734   1.257       .  A
O726       Co746   2.005       .  S
O727        C735   1.294       .  A
O727       Co747   2.070       .  S
O728        C736   1.279       .  A
O728       Co748   1.904       .  S
O729        C737   1.250       .  A
O729       Co749   1.997       .  S
O730        C736   1.290       .  A
O730       Co747   2.042       .  S
O731        C737   1.269       .  A
O731       Co746   2.042       .  S
O732        C735   1.263       .  A
O732       Co749   1.899       .  S
O733        C734   1.251       .  A
O733       Co748   1.991       .  S
C734       C2005   1.477       .  S
C735       C2281   1.462       .  S
C736       C2116   1.473       .  S
C737       C1981   1.488       .  S
O738        C751   1.254       .  A
O738       Co746   1.968       .  S
O739        C752   1.257       .  A
O739       Co747   2.011       .  S
O740        C753   1.279       .  A
O740       Co748   2.038       .  S
O741        C754   1.248       .  A
O741       Co749   1.952       .  S
O742        C754   1.257       .  A
O742       Co747   2.004       .  S
O743        C753   1.259       .  A
O743       Co746   1.959       .  S
O744        C751   1.269       .  A
O744       Co749   2.025       .  S
O745        C752   1.258       .  A
O745       Co748   1.993       .  S
Co746       O750   2.114       .  S
Co747       O750   2.253       .  S
Co748       O750   1.945       .  S
Co749       O750   1.927       .  S
C751       C1993   1.473       .  S
C752       C2896   1.519       .  S
C753       C3049   1.474       .  S
C754       C1972   1.489       .  S
O755        C763   1.276       .  A
O755       Co775   1.992       .  S
O756        C764   1.253       .  A
O756       Co776   1.944       .  S
O757        C765   1.274       .  A
O757       Co777   2.043       .  S
O758        C766   1.291       .  A
O758       Co778   2.121       .  S
O759        C765   1.259       .  A
O759       Co776   1.964       .  S
O760        C766   1.261       .  A
O760       Co775   1.882       .  S
O761        C764   1.260       .  A
O761       Co778   1.997       .  S
O762        C763   1.266       .  A
O762       Co777   1.987       .  S
C763       C1960   1.481       .  S
C764       C1936   1.444       .  S
C765       C2356   1.502       .  S
C766       C2041   1.456       .  S
O767        C780   1.303       .  A
O767       Co775   2.138       .  S
O768        C781   1.275       .  A
O768       Co776   1.996       .  S
O769        C782   1.266       .  A
O769       Co777   1.980       .  S
O770        C783   1.274       .  A
O770       Co778   1.987       .  S
O771        C783   1.278       .  A
O771       Co776   2.023       .  S
O772        C782   1.254       .  A
O772       Co775   1.946       .  S
O773        C780   1.270       .  A
O773       Co778   1.891       .  S
O774        C781   1.263       .  A
O774       Co777   1.953       .  S
Co775       O779   1.977       .  S
Co776       O779   1.993       .  S
Co777       O779   2.063       .  S
Co778       O779   2.022       .  S
C780       C2944   1.504       .  S
C781       C1945   1.459       .  S
C782       C3220   1.462       .  S
C783       C1921   1.489       .  S
O784        C792   1.262       .  A
O784       Co804   1.952       .  S
O785        C793   1.245       .  A
O785       Co805   1.949       .  S
O786        C794   1.267       .  A
O786       Co806   2.013       .  S
O787        C795   1.291       .  A
O787       Co807   2.102       .  S
O788        C794   1.253       .  A
O788       Co805   1.949       .  S
O789        C795   1.267       .  A
O789       Co804   1.911       .  S
O790        C793   1.262       .  A
O790       Co807   2.035       .  S
O791        C792   1.278       .  A
O791       Co806   2.032       .  S
C792       C1897   1.470       .  S
C793       C2188   1.478       .  S
C794       C1909   1.480       .  S
C795       C1864   1.492       .  S
O796        C809   1.294       .  A
O796       Co804   2.091       .  S
O797        C810   1.269       .  A
O797       Co805   1.996       .  S
O798        C811   1.263       .  A
O798       Co806   1.980       .  S
O799        C812   1.271       .  A
O799       Co807   1.974       .  S
O800        C812   1.281       .  A
O800       Co805   2.044       .  S
O801        C811   1.268       .  A
O801       Co804   2.009       .  S
O802        C809   1.266       .  A
O802       Co807   1.896       .  S
O803        C810   1.275       .  A
O803       Co806   1.995       .  S
Co804       O808   2.012       .  S
Co805       O808   2.005       .  S
Co806       O808   2.055       .  S
Co807       O808   2.012       .  S
C809       C1873   1.477       .  S
C810       C2932   1.495       .  S
C811       C2992   1.502       .  S
C812       C1885   1.482       .  S
O813        C821   1.313       .  A
O813       Co833   2.146       .  S
O814        C822   1.257       .  A
O814       Co834   2.020       .  S
O815        C823   1.264       .  A
O815       Co835   1.944       .  S
O816        C824   1.260       .  A
O816       Co836   1.972       .  S
O817        C823   1.282       .  A
O817       Co834   2.043       .  S
O818        C824   1.261       .  A
O818       Co833   1.995       .  S
O819        C822   1.246       .  A
O819       Co836   1.938       .  S
O820        C821   1.277       .  A
O820       Co835   1.850       .  S
C821       C1852   1.490       .  S
C822       C1825   1.453       .  S
C823       C1813   1.483       .  S
C824       C1837   1.480       .  S
O825        C838   1.264       .  A
O825       Co833   1.986       .  S
O826        C839   1.265       .  A
O826       Co834   1.977       .  S
O827        C840   1.249       .  A
O827       Co835   2.034       .  S
O828        C841   1.285       .  A
O828       Co836   2.035       .  S
O829        C841   1.275       .  A
O829       Co834   1.969       .  S
O830        C840   1.236       .  A
O830       Co833   1.942       .  S
O831        C838   1.257       .  A
O831       Co836   1.984       .  S
O832        C839   1.272       .  A
O832       Co835   2.032       .  S
Co833       O837   2.100       .  S
Co834       O837   2.088       .  S
Co835       O837   2.007       .  S
Co836       O837   2.057       .  S
C838       C1792   1.490       .  S
C839       C1801   1.499       .  S
C840       C1996   1.491       .  S
C841       C1876   1.499       .  S
O842        C850   1.260       .  A
O842       Co862   1.979       .  S
O843        C851   1.279       .  A
O843       Co863   1.911       .  S
O844        C852   1.261       .  A
O844       Co864   2.022       .  S
O845        C853   1.293       .  A
O845       Co865   2.072       .  S
O846        C852   1.258       .  A
O846       Co863   1.993       .  S
O847        C853   1.266       .  A
O847       Co862   1.899       .  S
O848        C851   1.292       .  A
O848       Co865   2.050       .  S
O849        C850   1.265       .  A
O849       Co864   2.002       .  S
C850       C2101   1.478       .  S
C851       C1741   1.485       .  S
C852       C1777   1.482       .  S
C853       C1753   1.467       .  S
O854        C867   1.246       .  A
O854       Co862   1.957       .  S
O855        C868   1.276       .  A
O855       Co863   2.033       .  S
O856        C869   1.265       .  A
O856       Co864   1.981       .  S
O857        C870   1.255       .  A
O857       Co865   2.008       .  S
O858        C870   1.248       .  A
O858       Co863   1.981       .  S
O859        C869   1.267       .  A
O859       Co862   2.006       .  S
O860        C867   1.258       .  A
O860       Co865   1.997       .  S
O861        C868   1.266       .  A
O861       Co864   1.975       .  S
Co862       O866   1.962       .  S
Co863       O866   1.963       .  S
Co864       O866   2.093       .  S
Co865       O866   2.231       .  S
C867       C1765   1.472       .  S
C868       C2605   1.487       .  S
C869       C2656   1.474       .  S
C870       C1729   1.486       .  S
O871        C879   1.257       .  A
O871       Co891   2.028       .  S
O872        C880   1.253       .  A
O872       Co892   1.954       .  S
O873        C881   1.268       .  A
O873       Co893   2.007       .  S
O874        C882   1.247       .  A
O874       Co894   1.969       .  S
O875        C881   1.261       .  A
O875       Co892   1.950       .  S
O876        C882   1.252       .  A
O876       Co891   1.999       .  S
O877        C880   1.268       .  A
O877       Co894   2.028       .  S
O878        C879   1.238       .  A
O878       Co893   1.943       .  S
C879       C1684   1.497       .  S
C880       C1717   1.478       .  S
C881       C1696   1.469       .  S
C882       C1849   1.487       .  S
O883        C896   1.301       .  A
O883       Co891   2.074       .  S
O884        C897   1.263       .  A
O884       Co892   1.991       .  S
O885        C898   1.278       .  A
O885       Co893   1.935       .  S
O886        C899   1.260       .  A
O886       Co894   1.978       .  S
O887        C899   1.271       .  A
O887       Co892   2.030       .  S
O888        C898   1.293       .  A
O888       Co891   2.054       .  S
O889        C896   1.275       .  A
O889       Co894   1.893       .  S
O890        C897   1.270       .  A
O890       Co893   2.000       .  S
Co891       O895   2.252       .  S
Co892       O895   2.064       .  S
Co893       O895   1.986       .  S
Co894       O895   1.951       .  S
C896       C1969   1.476       .  S
C897       C1708   1.494       .  S
C898       C2260   1.506       .  S
C899       C1768   1.487       .  S
O900        C908   1.265       .  A
O900       Co920   2.002       .  S
O901        C909   1.265       .  A
O901       Co921   1.875       .  S
O902        C910   1.268       .  A
O902       Co922   2.046       .  S
O903        C911   1.287       .  A
O903       Co923   2.040       .  S
O904        C910   1.248       .  A
O904       Co921   1.981       .  S
O905        C911   1.273       .  A
O905       Co920   1.903       .  S
O906        C909   1.294       .  A
O906       Co923   2.054       .  S
O907        C908   1.262       .  A
O907       Co922   2.005       .  S
C908       C1669   1.486       .  S
C909       C1933   1.453       .  S
C910       C2017   1.480       .  S
C911       C2365   1.472       .  S
O912        C925   1.247       .  A
O912       Co920   1.969       .  S
O913        C926   1.265       .  A
O913       Co921   2.001       .  S
O914        C927   1.267       .  A
O914       Co922   1.989       .  S
O915        C928   1.252       .  A
O915       Co923   1.984       .  S
O916        C928   1.249       .  A
O916       Co921   1.982       .  S
O917        C927   1.269       .  A
O917       Co920   1.987       .  S
O918        C925   1.255       .  A
O918       Co923   1.997       .  S
O919        C926   1.257       .  A
O919       Co922   1.965       .  S
Co920       O924   1.949       .  S
Co921       O924   1.943       .  S
Co922       O924   2.093       .  S
Co923       O924   2.234       .  S
C925       C1657   1.482       .  S
C926       C3388   1.459       .  S
C927       C3652   1.488       .  S
C928       C1645   1.475       .  S
O929        C937   1.268       .  A
O929       Co949   1.903       .  S
O930        C938   1.252       .  A
O930       Co950   1.951       .  S
O931        C939   1.259       .  A
O931       Co951   1.999       .  S
O932        C940   1.269       .  A
O932       Co952   2.014       .  S
O933        C939   1.259       .  A
O933       Co950   1.980       .  S
O934        C940   1.269       .  A
O934       Co949   1.988       .  S
O935        C938   1.267       .  A
O935       Co952   2.028       .  S
O936        C937   1.295       .  A
O936       Co951   2.117       .  S
C937       C1633   1.482       .  S
C938       C2176   1.469       .  S
C939       C1861   1.477       .  S
C940       C2236   1.484       .  S
O941        C954   1.272       .  A
O941       Co949   2.039       .  S
O942        C955   1.277       .  A
O942       Co950   2.015       .  S
O943        C956   1.265       .  A
O943       Co951   1.877       .  S
O944        C957   1.263       .  A
O944       Co952   1.966       .  S
O945        C957   1.275       .  A
O945       Co950   2.030       .  S
O946        C956   1.306       .  A
O946       Co949   2.125       .  S
O947        C954   1.258       .  A
O947       Co952   1.973       .  S
O948        C955   1.276       .  A
O948       Co951   1.996       .  S
Co949       O953   2.020       .  S
Co950       O953   2.022       .  S
Co951       O953   2.011       .  S
Co952       O953   2.071       .  S
C954       C3316   1.499       .  S
C955       C1804   1.493       .  S
C956       C3484   1.490       .  S
C957       C1621   1.472       .  S
O958        C966   1.249       .  A
O958       Co978   1.949       .  S
O959        C967   1.267       .  A
O959       Co979   1.902       .  S
O960        C968   1.241       .  A
O960       Co980   1.983       .  S
O961        C969   1.267       .  A
O961       Co981   2.009       .  S
O962        C968   1.255       .  A
O962       Co979   2.049       .  S
O963        C969   1.260       .  A
O963       Co978   1.960       .  S
O964        C967   1.295       .  A
O964       Co981   2.085       .  S
O965        C966   1.260       .  A
O965       Co980   2.000       .  S
C966       C1609   1.471       .  S
C967       C2308   1.474       .  S
C968       C1984   1.489       .  S
C969       C1597   1.484       .  S
O970        C983   1.254       .  A
O970       Co978   1.978       .  S
O971        C984   1.281       .  A
O971       Co979   2.039       .  S
O972        C985   1.254       .  A
O972       Co980   1.953       .  S
O973        C986   1.267       .  A
O973       Co981   1.900       .  S
O974        C986   1.298       .  A
O974       Co979   2.089       .  S
O975        C985   1.267       .  A
O975       Co978   1.986       .  S
O976        C983   1.265       .  A
O976       Co981   2.021       .  S
O977        C984   1.261       .  A
O977       Co980   1.952       .  S
Co978       O982   2.077       .  S
Co979       O982   2.032       .  S
Co980       O982   2.090       .  S
Co981       O982   2.062       .  S
C983       C3364   1.495       .  S
C984       C1789   1.474       .  S
C985       C3424   1.481       .  S
C986       C1585   1.477       .  S
O987        C995   1.264       .  A
O987      Co1007   1.976       .  S
O988        C996   1.266       .  A
O988      Co1008   1.911       .  S
O989        C997   1.267       .  A
O989      Co1009   2.022       .  S
O990        C998   1.306       .  A
O990      Co1010   2.102       .  S
O991        C997   1.258       .  A
O991      Co1008   1.974       .  S
O992        C998   1.282       .  A
O992      Co1007   1.865       .  S
O993        C996   1.289       .  A
O993      Co1010   2.073       .  S
O994        C995   1.271       .  A
O994      Co1009   1.992       .  S
C995       C1561   1.486       .  S
C996       C1681   1.485       .  S
C997       C1573   1.490       .  S
C998       C1840   1.462       .  S
O999       C1012   1.255       .  A
O999      Co1007   1.995       .  S
O1000      C1013   1.271       .  A
O1000     Co1008   1.997       .  S
O1001      C1014   1.274       .  A
O1001     Co1009   1.971       .  S
O1002      C1015   1.280       .  A
O1002     Co1010   1.898       .  S
O1003      C1015   1.289       .  A
O1003     Co1008   2.049       .  S
O1004      C1014   1.287       .  A
O1004     Co1007   2.029       .  S
O1005      C1012   1.255       .  A
O1005     Co1010   1.982       .  S
O1006      C1013   1.270       .  A
O1006     Co1009   1.984       .  S
Co1007     O1011   1.905       .  S
Co1008     O1011   1.961       .  S
Co1009     O1011   2.012       .  S
Co1010     O1011   2.019       .  S
C1012      C1588   1.496       .  S
C1013      C1660   1.484       .  S
C1014      C2344   1.480       .  S
C1015      C2269   1.456       .  S
O1016      C1024   1.281       .  A
O1016     Co1036   2.039       .  S
O1017      C1025   1.268       .  A
O1017     Co1037   2.031       .  S
O1018      C1026   1.267       .  A
O1018     Co1038   1.914       .  S
O1019      C1027   1.253       .  A
O1019     Co1039   1.957       .  S
O1020      C1026   1.293       .  A
O1020     Co1037   2.103       .  S
O1021      C1027   1.267       .  A
O1021     Co1036   2.026       .  S
O1022      C1025   1.250       .  A
O1022     Co1039   1.952       .  S
O1023      C1024   1.268       .  A
O1023     Co1038   1.971       .  S
C1024      C1537   1.494       .  S
C1025      C2068   1.474       .  S
C1026      C1780   1.502       .  S
C1027      C1549   1.485       .  S
O1028      C1041   1.271       .  A
O1028     Co1036   1.976       .  S
O1029      C1042   1.273       .  A
O1029     Co1037   1.896       .  S
O1030      C1043   1.268       .  A
O1030     Co1038   2.022       .  S
O1031      C1044   1.275       .  A
O1031     Co1039   2.009       .  S
O1032      C1044   1.274       .  A
O1032     Co1037   1.987       .  S
O1033      C1043   1.262       .  A
O1033     Co1036   1.977       .  S
O1034      C1041   1.276       .  A
O1034     Co1039   2.028       .  S
O1035      C1042   1.299       .  A
O1035     Co1038   2.101       .  S
Co1036     O1040   2.050       .  S
Co1037     O1040   2.033       .  S
Co1038     O1040   2.011       .  S
Co1039     O1040   2.005       .  S
C1041      C3280   1.479       .  S
C1042      C2596   1.484       .  S
C1043      C3616   1.510       .  S
C1044      C2416   1.503       .  S
O1045      C1053   1.258       .  A
O1045     Co1065   1.889       .  S
O1046      C1054   1.243       .  A
O1046     Co1066   1.937       .  S
O1047      C1055   1.259       .  A
O1047     Co1067   2.010       .  S
O1048      C1056   1.272       .  A
O1048     Co1068   1.998       .  S
O1049      C1055   1.248       .  A
O1049     Co1066   1.950       .  S
O1050      C1056   1.268       .  A
O1050     Co1065   1.984       .  S
O1051      C1054   1.267       .  A
O1051     Co1068   2.032       .  S
O1052      C1053   1.293       .  A
O1052     Co1067   2.116       .  S
C1053      C1564   1.483       .  S
C1054      C1513   1.459       .  S
C1055      C1828   1.461       .  S
C1056      C1525   1.482       .  S
O1057      C1070   1.258       .  A
O1057     Co1065   1.975       .  S
O1058      C1071   1.269       .  A
O1058     Co1066   1.985       .  S
O1059      C1072   1.275       .  A
O1059     Co1067   1.930       .  S
O1060      C1073   1.261       .  A
O1060     Co1068   1.953       .  S
O1061      C1073   1.283       .  A
O1061     Co1066   2.042       .  S
O1062      C1072   1.292       .  A
O1062     Co1065   2.063       .  S
O1063      C1070   1.258       .  A
O1063     Co1068   1.974       .  S
O1064      C1071   1.279       .  A
O1064     Co1067   2.002       .  S
Co1065     O1069   1.986       .  S
Co1066     O1069   1.970       .  S
Co1067     O1069   2.072       .  S
Co1068     O1069   2.067       .  S
C1070      C1948   1.474       .  S
C1071      C1888   1.500       .  S
C1072      C2332   1.494       .  S
C1073      C2152   1.475       .  S
O1074      C1082   1.257       .  A
O1074     Co1094   1.964       .  S
O1075      C1083   1.269       .  A
O1075     Co1095   1.984       .  S
O1076      C1084   1.290       .  A
O1076     Co1096   2.107       .  S
O1077      C1085   1.267       .  A
O1077     Co1097   2.015       .  S
O1078      C1084   1.266       .  A
O1078     Co1095   1.909       .  S
O1079      C1085   1.256       .  A
O1079     Co1094   1.962       .  S
O1080      C1083   1.279       .  A
O1080     Co1097   2.047       .  S
O1081      C1082   1.257       .  A
O1081     Co1096   1.988       .  S
C1082      C1501   1.447       .  S
C1083      C2092   1.508       .  S
C1084      C1552   1.479       .  S
C1085      C1489   1.471       .  S
O1086      C1099   1.280       .  A
O1086     Co1094   2.036       .  S
O1087      C1100   1.289       .  A
O1087     Co1095   2.078       .  S
O1088      C1101   1.281       .  A
O1088     Co1096   2.001       .  S
O1089      C1102   1.261       .  A
O1089     Co1097   1.976       .  S
O1090      C1102   1.265       .  A
O1090     Co1095   2.025       .  S
O1091      C1101   1.279       .  A
O1091     Co1094   2.035       .  S
O1092      C1099   1.268       .  A
O1092     Co1097   1.981       .  S
O1093      C1100   1.272       .  A
O1093     Co1096   1.886       .  S
Co1094     O1098   2.022       .  S
Co1095     O1098   2.036       .  S
Co1096     O1098   2.024       .  S
Co1097     O1098   2.049       .  S
C1099      C3040   1.511       .  S
C1100      C3268   1.477       .  S
C1101      C3472   1.530       .  S
C1102      C2833   1.491       .  S
O1103      C1111   1.265       .  A
O1103     Co1123   1.899       .  S
O1104      C1112   1.250       .  A
O1104     Co1124   1.944       .  S
O1105      C1113   1.267       .  A
O1105     Co1125   2.039       .  S
O1106      C1114   1.275       .  A
O1106     Co1126   2.045       .  S
O1107      C1113   1.249       .  A
O1107     Co1124   1.952       .  S
O1108      C1114   1.258       .  A
O1108     Co1123   1.968       .  S
O1109      C1112   1.255       .  A
O1109     Co1126   1.993       .  S
O1110      C1111   1.289       .  A
O1110     Co1125   2.091       .  S
C1111      C1528   1.472       .  S
C1112      C1693   1.460       .  S
C1113      C1465   1.493       .  S
C1114      C1576   1.474       .  S
O1115      C1128   1.268       .  A
O1115     Co1123   2.038       .  S
O1116      C1129   1.278       .  A
O1116     Co1124   2.016       .  S
O1117      C1130   1.272       .  A
O1117     Co1125   1.912       .  S
O1118      C1131   1.268       .  A
O1118     Co1126   1.971       .  S
O1119      C1131   1.276       .  A
O1119     Co1124   2.028       .  S
O1120      C1130   1.300       .  A
O1120     Co1123   2.088       .  S
O1121      C1128   1.249       .  A
O1121     Co1126   1.954       .  S
O1122      C1129   1.270       .  A
O1122     Co1125   1.970       .  S
Co1123     O1127   2.012       .  S
Co1124     O1127   1.992       .  S
Co1125     O1127   2.053       .  S
Co1126     O1127   2.071       .  S
C1128      C1648   1.481       .  S
C1129      C1477   1.476       .  S
C1130      C1924   1.498       .  S
C1131      C1453   1.476       .  S
O1132      C1140   1.266       .  A
O1132     Co1152   2.038       .  S
O1133      C1141   1.279       .  A
O1133     Co1153   2.032       .  S
O1134      C1142   1.247       .  A
O1134     Co1154   1.932       .  S
O1135      C1143   1.259       .  A
O1135     Co1155   1.893       .  S
O1136      C1142   1.260       .  A
O1136     Co1153   2.026       .  S
O1137      C1143   1.293       .  A
O1137     Co1152   2.103       .  S
O1138      C1141   1.268       .  A
O1138     Co1155   1.973       .  S
O1139      C1140   1.246       .  A
O1139     Co1154   1.947       .  S
C1140      C1540   1.473       .  S
C1141      C1441   1.493       .  S
C1142      C1504   1.470       .  S
C1143      C1744   1.485       .  S
O1144      C1157   1.269       .  A
O1144     Co1152   1.879       .  S
O1145      C1158   1.269       .  A
O1145     Co1153   1.970       .  S
O1146      C1159   1.275       .  A
O1146     Co1154   2.015       .  S
O1147      C1160   1.262       .  A
O1147     Co1155   2.003       .  S
O1148      C1160   1.261       .  A
O1148     Co1153   1.990       .  S
O1149      C1159   1.268       .  A
O1149     Co1152   1.975       .  S
O1150      C1157   1.304       .  A
O1150     Co1155   2.113       .  S
O1151      C1158   1.273       .  A
O1151     Co1154   2.005       .  S
Co1152     O1156   2.031       .  S
Co1153     O1156   2.082       .  S
Co1154     O1156   1.993       .  S
Co1155     O1156   1.992       .  S
C1157      C1429   1.483       .  S
C1158      C3448   1.466       .  S
C1159      C3604   1.473       .  S
C1160      C1480   1.488       .  S
O1161      C1169   1.255       .  A
O1161     Co1181   1.891       .  S
O1162      C1170   1.245       .  A
O1162     Co1182   1.944       .  S
O1163      C1171   1.255       .  A
O1163     Co1183   2.002       .  S
O1164      C1172   1.270       .  A
O1164     Co1184   1.997       .  S
O1165      C1171   1.251       .  A
O1165     Co1182   1.976       .  S
O1166      C1172   1.265       .  A
O1166     Co1181   1.988       .  S
O1167      C1170   1.269       .  A
O1167     Co1184   2.028       .  S
O1168      C1169   1.289       .  A
O1168     Co1183   2.099       .  S
C1169      C2080   1.454       .  S
C1170      C1444   1.485       .  S
C1171      C1756   1.466       .  S
C1172      C1492   1.473       .  S
O1173      C1186   1.252       .  A
O1173     Co1181   1.961       .  S
O1174      C1187   1.282       .  A
O1174     Co1182   2.041       .  S
O1175      C1188   1.265       .  A
O1175     Co1183   1.894       .  S
O1176      C1189   1.269       .  A
O1176     Co1184   1.972       .  S
O1177      C1189   1.281       .  A
O1177     Co1182   2.042       .  S
O1178      C1188   1.298       .  A
O1178     Co1181   2.084       .  S
O1179      C1186   1.271       .  A
O1179     Co1184   2.015       .  S
O1180      C1187   1.269       .  A
O1180     Co1183   1.968       .  S
Co1181     O1185   1.981       .  S
Co1182     O1185   2.009       .  S
Co1183     O1185   2.045       .  S
Co1184     O1185   2.096       .  S
C1186      C3016   1.507       .  S
C1187      C1705   1.483       .  S
C1188      C3196   1.480       .  S
C1189      C1456   1.485       .  S
O1190      C1198   1.275       .  A
O1190     Co1210   1.819       .  S
O1191      C1199   1.246       .  A
O1191     Co1211   1.940       .  S
O1192      C1200   1.258       .  A
O1192     Co1212   2.000       .  S
O1193      C1201   1.282       .  A
O1193     Co1213   2.066       .  S
O1194      C1200   1.255       .  A
O1194     Co1211   1.965       .  S
O1195      C1201   1.258       .  A
O1195     Co1210   1.944       .  S
O1196      C1199   1.262       .  A
O1196     Co1213   2.040       .  S
O1197      C1198   1.318       .  A
O1197     Co1212   2.157       .  S
C1198      C1516   1.459       .  S
C1199      C1720   1.474       .  S
C1200      C1816   1.483       .  S
C1201      C1468   1.476       .  S
O1202      C1215   1.268       .  A
O1202     Co1210   2.026       .  S
O1203      C1216   1.263       .  A
O1203     Co1211   2.003       .  S
O1204      C1217   1.238       .  A
O1204     Co1212   1.956       .  S
O1205      C1218   1.268       .  A
O1205     Co1213   1.964       .  S
O1206      C1218   1.279       .  A
O1206     Co1211   2.046       .  S
O1207      C1217   1.242       .  A
O1207     Co1210   2.042       .  S
O1208      C1215   1.261       .  A
O1208     Co1213   1.971       .  S
O1209      C1216   1.262       .  A
O1209     Co1212   1.975       .  S
Co1210     O1214   2.001       .  S
Co1211     O1214   2.069       .  S
Co1212     O1214   2.091       .  S
Co1213     O1214   2.077       .  S
C1215      C1432   1.493       .  S
C1216      C1624   1.491       .  S
C1217      C2164   1.500       .  S
C1218      C1732   1.490       .  S
O1219      C1227   1.244       .  A
O1219     Co1239   1.949       .  S
O1220      C1228   1.263       .  A
O1220     Co1240   1.915       .  S
O1221      C1229   1.248       .  A
O1221     Co1241   1.998       .  S
O1222      C1230   1.267       .  A
O1222     Co1242   2.007       .  S
O1223      C1229   1.248       .  A
O1223     Co1240   2.013       .  S
O1224      C1230   1.263       .  A
O1224     Co1239   1.973       .  S
O1225      C1228   1.290       .  A
O1225     Co1242   2.093       .  S
O1226      C1227   1.254       .  A
O1226     Co1241   1.990       .  S
C1227      C1612   1.471   1_556  S
C1228      C2125   1.485   1_556  S
C1229      C1420   1.490   1_556  S
C1230      C2008   1.485   1_556  S
O1231      C1244   1.252       .  A
O1231     Co1239   1.949       .  S
O1232      C1245   1.277       .  A
O1232     Co1240   2.024       .  S
O1233      C1246   1.277       .  A
O1233     Co1241   2.034       .  S
O1234      C1247   1.267       .  A
O1234     Co1242   1.896       .  S
O1235      C1247   1.301       .  A
O1235     Co1240   2.101       .  S
O1236      C1246   1.262       .  A
O1236     Co1239   1.961       .  S
O1237      C1244   1.260       .  A
O1237     Co1242   2.004       .  S
O1238      C1245   1.276       .  A
O1238     Co1241   1.986       .  S
Co1239     O1243   2.091       .  S
Co1240     O1243   2.029       .  S
Co1241     O1243   2.114       .  S
Co1242     O1243   2.075       .  S
C1244      C3073   1.480       .  S
C1245      C3292   1.509       .  S
C1246      C3400   1.488       .  S
C1247      C3148   1.491       .  S
O1248      C1256   1.266       .  A
O1248     Co1268   2.029       .  S
O1249      C1257   1.300       .  A
O1249     Co1269   2.070       .  S
O1250      C1258   1.275       .  A
O1250     Co1270   1.921       .  S
O1251      C1259   1.259       .  A
O1251     Co1271   2.001       .  S
O1252      C1258   1.297       .  A
O1252     Co1269   2.077       .  S
O1253      C1259   1.261       .  A
O1253     Co1268   2.006       .  S
O1254      C1257   1.275       .  A
O1254     Co1271   1.897       .  S
O1255      C1256   1.258       .  A
O1255     Co1270   1.991       .  S
C1256      C1672   1.495       .  S
C1257      C1408   1.494   1_565  S
C1258      C2392   1.490   1_565  S
C1259      C2032   1.486   1_565  S
O1260      C1273   1.261       .  A
O1260     Co1268   1.968       .  S
O1261      C1274   1.258       .  A
O1261     Co1269   2.001       .  S
O1262      C1275   1.276       .  A
O1262     Co1270   2.045       .  S
O1263      C1276   1.262       .  A
O1263     Co1271   2.014       .  S
O1264      C1276   1.257       .  A
O1264     Co1269   1.997       .  S
O1265      C1275   1.260       .  A
O1265     Co1268   1.970       .  S
O1266      C1273   1.279       .  A
O1266     Co1271   2.053       .  S
O1267      C1274   1.246       .  A
O1267     Co1270   1.959       .  S
Co1268     O1272   2.099       .  S
Co1269     O1272   2.247       .  S
Co1270     O1272   1.963       .  S
Co1271     O1272   1.975       .  S
C1273      C3592   1.502       .  S
C1274      C2560   1.476       .  S
C1275      C3688   1.508       .  S
C1276      C2428   1.523       .  S
O1277      C1285   1.270       .  A
O1277     Co1297   1.910       .  S
O1278      C1286   1.248       .  A
O1278     Co1298   1.944       .  S
O1279      C1287   1.266       .  A
O1279     Co1299   2.018       .  S
O1280      C1288   1.275       .  A
O1280     Co1300   2.027       .  S
O1281      C1287   1.255       .  A
O1281     Co1298   1.965       .  S
O1282      C1288   1.266       .  A
O1282     Co1297   1.981       .  S
O1283      C1286   1.265       .  A
O1283     Co1300   2.024       .  S
O1284      C1285   1.287       .  A
O1284     Co1299   2.080       .  S
C1285      C2221   1.466   1_556  S
C1286      C1900   1.461   1_556  S
C1287      C1393   1.481   1_556  S
C1288      C1636   1.499   1_556  S
O1289      C1302   1.270       .  A
O1289     Co1297   2.042       .  S
O1290      C1303   1.276       .  A
O1290     Co1298   2.009       .  S
O1291      C1304   1.271       .  A
O1291     Co1299   1.880       .  S
O1292      C1305   1.260       .  A
O1292     Co1300   1.945       .  S
O1293      C1305   1.277       .  A
O1293     Co1298   2.025       .  S
O1294      C1304   1.302       .  A
O1294     Co1297   2.101       .  S
O1295      C1302   1.252       .  A
O1295     Co1300   1.961       .  S
O1296      C1303   1.274       .  A
O1296     Co1299   1.991       .  S
Co1297     O1301   2.023       .  S
Co1298     O1301   2.006       .  S
Co1299     O1301   2.010       .  S
Co1300     O1301   2.054       .  S
C1302      C3505   1.493       .  S
C1303      C2860   1.493       .  S
C1304      C3580   1.486       .  S
C1305      C2968   1.457       .  S
O1306      C1314   1.253       .  A
O1306     Co1326   2.015       .  S
O1307      C1315   1.293       .  A
O1307     Co1327   2.072       .  S
O1308      C1316   1.262       .  A
O1308     Co1328   1.988       .  S
O1309      C1317   1.309       .  A
O1309     Co1329   2.120       .  S
O1310      C1316   1.265       .  A
O1310     Co1327   1.993       .  S
O1311      C1317   1.277       .  A
O1311     Co1326   1.891       .  S
O1312      C1315   1.269       .  A
O1312     Co1329   1.897       .  S
O1313      C1314   1.245       .  A
O1313     Co1328   1.957       .  S
C1314      C1912   1.478       .  S
C1315      C2245   1.473       .  S
C1316      C1396   1.497       .  S
C1317      C2200   1.496       .  S
O1318      C1331   1.261       .  A
O1318     Co1326   2.001       .  S
O1319      C1332   1.265       .  A
O1319     Co1327   2.003       .  S
O1320      C1333   1.275       .  A
O1320     Co1328   1.962       .  S
O1321      C1334   1.289       .  A
O1321     Co1329   2.063       .  S
O1322      C1334   1.272       .  A
O1322     Co1327   1.902       .  S
O1323      C1333   1.290       .  A
O1323     Co1326   2.026       .  S
O1324      C1331   1.255       .  A
O1324     Co1329   1.975       .  S
O1325      C1332   1.260       .  A
O1325     Co1328   1.976       .  S
Co1326     O1330   1.911       .  S
Co1327     O1330   2.032       .  S
Co1328     O1330   2.055       .  S
Co1329     O1330   2.063       .  S
C1331      C2728   1.504       .  S
C1332      C2872   1.493       .  S
C1333      C2908   1.487       .  S
C1334      C2800   1.466       .  S
O1335      C1343   1.274       .  A
O1335     Co1355   2.044       .  S
O1336      C1344   1.281       .  A
O1336     Co1356   2.029       .  S
O1337      C1345   1.250       .  A
O1337     Co1357   1.951       .  S
O1338      C1346   1.258       .  A
O1338     Co1358   1.899       .  S
O1339      C1345   1.258       .  A
O1339     Co1356   2.011       .  S
O1340      C1346   1.286       .  A
O1340     Co1355   2.092       .  S
O1341      C1344   1.267       .  A
O1341     Co1358   1.962       .  S
O1342      C1343   1.242       .  A
O1342     Co1357   1.941       .  S
C1343      C1957   1.485   1_655  S
C1344      C1405   1.495   1_655  S
C1345      C2056   1.460       .  S
C1346      C2377   1.480       .  S
O1347      C1360   1.278       .  A
O1347     Co1355   1.892       .  S
O1348      C1361   1.272       .  A
O1348     Co1356   1.969       .  S
O1349      C1362   1.276       .  A
O1349     Co1357   2.042       .  S
O1350      C1363   1.258       .  A
O1350     Co1358   1.987       .  S
O1351      C1363   1.262       .  A
O1351     Co1356   1.988       .  S
O1352      C1362   1.271       .  A
O1352     Co1355   1.994       .  S
O1353      C1360   1.300       .  A
O1353     Co1358   2.093       .  S
O1354      C1361   1.282       .  A
O1354     Co1357   1.999       .  S
Co1355     O1359   2.032       .  S
Co1356     O1359   2.079       .  S
Co1357     O1359   1.976       .  S
Co1358     O1359   1.985       .  S
C1360      C2488   1.492       .  S
C1361      C3160   1.489       .  S
C1362      C3256   1.503       .  S
C1363      C2440   1.483       .  S
O1364      C1372   1.260       .  A
O1364     Co1384   1.881       .  S
O1365      C1373   1.246       .  A
O1365     Co1385   1.943       .  S
O1366      C1374   1.265       .  A
O1366     Co1386   2.011       .  S
O1367      C1375   1.271       .  A
O1367     Co1387   2.021       .  S
O1368      C1374   1.254       .  A
O1368     Co1385   1.963       .  S
O1369      C1375   1.263       .  A
O1369     Co1384   1.977       .  S
O1370      C1373   1.263       .  A
O1370     Co1387   2.024       .  S
O1371      C1372   1.293       .  A
O1371     Co1386   2.115       .  S
C1372      C1600   1.468   1_565  S
C1373      C2140   1.466   1_565  S
C1374      C2317   1.464   1_565  S
C1375      C1417   1.470   1_565  S
O1376      C1389   1.261       .  A
O1376     Co1384   2.013       .  S
O1377      C1390   1.274       .  A
O1377     Co1385   2.004       .  S
O1378      C1391   1.275       .  A
O1378     Co1386   1.898       .  S
O1379      C1392   1.259       .  A
O1379     Co1387   1.946       .  S
O1380      C1392   1.284       .  A
O1380     Co1385   2.046       .  S
O1381      C1391   1.300       .  A
O1381     Co1384   2.089       .  S
O1382      C1389   1.252       .  A
O1382     Co1387   1.964       .  S
O1383      C1390   1.278       .  A
O1383     Co1386   1.997       .  S
Co1384     O1388   1.999       .  S
Co1385     O1388   1.994       .  S
Co1386     O1388   2.031       .  S
Co1387     O1388   2.068       .  S
C1389      C3304   1.478       .  S
C1390      C2644   1.494       .  S
C1391      C3340   1.489       .  S
C1392      C2824   1.466       .  S
C1393      C1394   1.403       .  A
C1393      C1398   1.408       .  A
C1394      C1395   1.397       .  A
C1394      H1403   1.085       .  S
C1395      C1396   1.420   1_455  A
C1395      S1399   1.804   1_455  S
C1396      C1397   1.412       .  A
C1397      C1398   1.404   1_655  A
C1397      H1404   1.080       .  S
C1398      S1400   1.798   1_554  S
S1399      H1402   1.408       .  S
S1400      H1401   1.406       .  S
C1405      C1406   1.407   1_455  A
C1405      C1410   1.419       .  A
C1406      C1407   1.401   1_655  A
C1406      H1415   1.083       .  S
C1407      C1408   1.418       .  A
C1407      S1411   1.802   1_545  S
C1408      C1409   1.406       .  A
C1409      C1410   1.399       .  A
C1409      H1416   1.084       .  S
C1410      S1412   1.804       .  S
S1411      H1414   1.406       .  S
S1412      H1413   1.408       .  S
C1417      C1418   1.400       .  A
C1417      C1422   1.409       .  A
C1418      C1419   1.395       .  A
C1418      H1427   1.085   1_545  S
C1419      C1420   1.420       .  A
C1419      S1423   1.802   1_554  S
C1420      C1421   1.411       .  A
C1421      C1422   1.402       .  A
C1421      H1428   1.083       .  S
C1422      S1424   1.802       .  S
S1423      H1426   1.405       .  S
S1424      H1425   1.403       .  S
C1429      C1430   1.403       .  A
C1429      C1434   1.415       .  A
C1430      C1431   1.406       .  A
C1430      H1439   1.084       .  S
C1431      C1432   1.417       .  A
C1431      S1435   1.799       .  S
C1432      C1433   1.406       .  A
C1433      C1434   1.399       .  A
C1433      H1440   1.082       .  S
C1434      S1436   1.811       .  S
S1435      H1438   1.405       .  S
S1436      H1437   1.406       .  S
C1441      C1442   1.404       .  A
C1441      C1446   1.416       .  A
C1442      C1443   1.400       .  A
C1442      H1451   1.083       .  S
C1443      C1444   1.420       .  A
C1443      S1447   1.810       .  S
C1444      C1445   1.400       .  A
C1445      C1446   1.400       .  A
C1445      H1452   1.084       .  S
C1446      S1448   1.788       .  S
S1447      H1450   1.407       .  S
S1448      H1449   1.400       .  S
C1453      C1454   1.392       .  A
C1453      C1458   1.417       .  A
C1454      C1455   1.401       .  A
C1454      H1463   1.080       .  S
C1455      C1456   1.417       .  A
C1455      S1459   1.796       .  S
C1456      C1457   1.398       .  A
C1457      C1458   1.402       .  A
C1457      H1464   1.080       .  S
C1458      S1460   1.798       .  S
S1459      H1462   1.407       .  S
S1460      H1461   1.406       .  S
C1465      C1466   1.413       .  A
C1465      C1470   1.411       .  A
C1466      C1467   1.396       .  A
C1466      H1475   1.082       .  S
C1467      C1468   1.404       .  A
C1467      S1471   1.798       .  S
C1468      C1469   1.407       .  A
C1469      C1470   1.407       .  A
C1469      H1476   1.078       .  S
C1470      S1472   1.804       .  S
S1471      H1474   1.404       .  S
S1472      H1473   1.405       .  S
C1477      C1478   1.392       .  A
C1477      C1482   1.418       .  A
C1478      C1479   1.388       .  A
C1478      H1487   1.080       .  S
C1479      C1480   1.415       .  A
C1479      S1483   1.786       .  S
C1480      C1481   1.406       .  A
C1481      C1482   1.411       .  A
C1481      H1488   1.084       .  S
C1482      S1484   1.798       .  S
S1483      H1486   1.407       .  S
S1484      H1485   1.405       .  S
C1489      C1490   1.407       .  A
C1489      C1494   1.409       .  A
C1490      C1491   1.402       .  A
C1490      H1499   1.084       .  S
C1491      C1492   1.411       .  A
C1491      S1495   1.802       .  S
C1492      C1493   1.405       .  A
C1493      C1494   1.391       .  A
C1493      H1500   1.084       .  S
C1494      S1496   1.800       .  S
S1495      H1498   1.405       .  S
S1496      H1497   1.406       .  S
C1501      C1502   1.399       .  A
C1501      C1506   1.398       .  A
C1502      C1503   1.397       .  A
C1502      H1511   1.083       .  S
C1503      C1504   1.413       .  A
C1503      S1507   1.801       .  S
C1504      C1505   1.407       .  A
C1505      C1506   1.383       .  A
C1505      H1512   1.084       .  S
C1506      S1508   1.790       .  S
S1507      H1510   1.406       .  S
S1508      H1509   1.400       .  S
C1513      C1514   1.407       .  A
C1513      C1518   1.404       .  A
C1514      C1515   1.397       .  A
C1514      H1523   1.081       .  S
C1515      C1516   1.407       .  A
C1515      S1519   1.802       .  S
C1516      C1517   1.404       .  A
C1517      C1518   1.384       .  A
C1517      H1524   1.085       .  S
C1518      S1520   1.798       .  S
S1519      H1522   1.403       .  S
S1520      H1521   1.403       .  S
C1525      C1526   1.404       .  A
C1525      C1530   1.413       .  A
C1526      C1527   1.396       .  A
C1526      H1535   1.084       .  S
C1527      C1528   1.413       .  A
C1527      S1531   1.797       .  S
C1528      C1529   1.398       .  A
C1529      C1530   1.394       .  A
C1529      H1536   1.084       .  S
C1530      S1532   1.785       .  S
S1531      H1534   1.400       .  S
S1532      H1533   1.407       .  S
C1537      C1538   1.404       .  A
C1537      C1542   1.420       .  A
C1538      C1539   1.401       .  A
C1538      H1547   1.084       .  S
C1539      C1540   1.414       .  A
C1539      S1543   1.799       .  S
C1540      C1541   1.392       .  A
C1541      C1542   1.398       .  A
C1541      H1548   1.080       .  S
C1542      S1544   1.784       .  S
S1543      H1546   1.405       .  S
S1544      H1545   1.406       .  S
C1549      C1550   1.407       .  A
C1549      C1554   1.416       .  A
C1550      C1551   1.402       .  A
C1550      H1559   1.084       .  S
C1551      C1552   1.410       .  A
C1551      S1555   1.796       .  S
C1552      C1553   1.402       .  A
C1553      C1554   1.398       .  A
C1553      H1560   1.084       .  S
C1554      S1556   1.804       .  S
S1555      H1558   1.404       .  S
S1556      H1557   1.408       .  S
C1561      C1562   1.403       .  A
C1561      C1566   1.416       .  A
C1562      C1563   1.392       .  A
C1562      H1571   1.082       .  S
C1563      C1564   1.415       .  A
C1563      S1567   1.802       .  S
C1564      C1565   1.404       .  A
C1565      C1566   1.401       .  A
C1565      H1572   1.084       .  S
C1566      S1568   1.792       .  S
S1567      H1570   1.406       .  S
S1568      H1569   1.407       .  S
C1573      C1574   1.409       .  A
C1573      C1578   1.418       .  A
C1574      C1575   1.394       .  A
C1574      H1583   1.084       .  S
C1575      C1576   1.407       .  A
C1575      S1579   1.794       .  S
C1576      C1577   1.403       .  A
C1577      C1578   1.404       .  A
C1577      H1584   1.084       .  S
C1578      S1580   1.799       .  S
S1579      H1582   1.406       .  S
S1580      H1581   1.405       .  S
C1585      C1586   1.400       .  A
C1585      C1590   1.406       .  A
C1586      C1587   1.399       .  A
C1586      H1595   1.082       .  S
C1587      C1588   1.419       .  A
C1587      S1591   1.804       .  S
C1588      C1589   1.415       .  A
C1589      C1590   1.406       .  A
C1589      H1596   1.083       .  S
C1590      S1592   1.802       .  S
S1591      H1594   1.406       .  S
S1592      H1593   1.406       .  S
C1597      C1598   1.406       .  A
C1597      C1602   1.417       .  A
C1598      C1599   1.387       .  A
C1598      H1607   1.080       .  S
C1599      C1600   1.408       .  A
C1599      S1603   1.801       .  S
C1600      C1601   1.403       .  A
C1601      C1602   1.401       .  A
C1601      H1608   1.084   1_545  S
C1602      S1604   1.797       .  S
S1603      H1606   1.408   1_545  S
S1604      H1605   1.406       .  S
C1609      C1610   1.410       .  A
C1609      C1614   1.405       .  A
C1610      C1611   1.391       .  A
C1610      H1619   1.081       .  S
C1611      C1612   1.406       .  A
C1611      S1615   1.803       .  S
C1612      C1613   1.412       .  A
C1613      C1614   1.396       .  A
C1613      H1620   1.082       .  S
C1614      S1616   1.800       .  S
S1615      H1618   1.408   1_554  S
S1616      H1617   1.405       .  S
C1621      C1622   1.397       .  A
C1621      C1626   1.410       .  A
C1622      C1623   1.406       .  A
C1622      H1631   1.080       .  S
C1623      C1624   1.425       .  A
C1623      S1627   1.810       .  S
C1624      C1625   1.404       .  A
C1625      C1626   1.395       .  A
C1625      H1632   1.084       .  S
C1626      S1628   1.799       .  S
S1627      H1630   1.406       .  S
S1628      H1629   1.406       .  S
C1633      C1634   1.403       .  A
C1633      C1638   1.406       .  A
C1634      C1635   1.410       .  A
C1634      H1643   1.081       .  S
C1635      C1636   1.421       .  A
C1635      S1639   1.808       .  S
C1636      C1637   1.409       .  A
C1637      C1638   1.397       .  A
C1637      H1644   1.083   1_554  S
C1638      S1640   1.792       .  S
S1639      H1642   1.407       .  S
S1640      H1641   1.406       .  S
C1645      C1646   1.394       .  A
C1645      C1650   1.414       .  A
C1646      C1647   1.399       .  A
C1646      H1655   1.081       .  S
C1647      C1648   1.422       .  A
C1647      S1651   1.796       .  S
C1648      C1649   1.396       .  A
C1649      C1650   1.399       .  A
C1649      H1656   1.080       .  S
C1650      S1652   1.794       .  S
S1651      H1654   1.404       .  S
S1652      H1653   1.407       .  S
C1657      C1658   1.408       .  A
C1657      C1662   1.410       .  A
C1658      C1659   1.406       .  A
C1658      H1667   1.084       .  S
C1659      C1660   1.413       .  A
C1659      S1663   1.802       .  S
C1660      C1661   1.406       .  A
C1661      C1662   1.395       .  A
C1661      H1668   1.084       .  S
C1662      S1664   1.798       .  S
S1663      H1666   1.407       .  S
S1664      H1665   1.406       .  S
C1669      C1670   1.400       .  A
C1669      C1674   1.417       .  A
C1670      C1671   1.399       .  A
C1670      H1679   1.085       .  S
C1671      C1672   1.417   1_545  A
C1671      S1675   1.795   1_545  S
C1672      C1673   1.405   1_565  A
C1673      C1674   1.406       .  A
C1673      H1680   1.080   1_545  S
C1674      S1676   1.799       .  S
S1675      H1678   1.405       .  S
S1676      H1677   1.407       .  S
C1681      C1682   1.410       .  A
C1681      C1686   1.409       .  A
C1682      C1683   1.404       .  A
C1682      H1691   1.084       .  S
C1683      C1684   1.412       .  A
C1683      S1687   1.789       .  S
C1684      C1685   1.408       .  A
C1685      C1686   1.395       .  A
C1685      H1692   1.076       .  S
C1686      S1688   1.800       .  S
S1687      H1690   1.406       .  S
S1688      H1689   1.408       .  S
C1693      C1694   1.403       .  A
C1693      C1698   1.409       .  A
C1694      C1695   1.400       .  A
C1694      H1703   1.084       .  S
C1695      C1696   1.412       .  A
C1695      S1699   1.798       .  S
C1696      C1697   1.402       .  A
C1697      C1698   1.385       .  A
C1697      H1704   1.084       .  S
C1698      S1700   1.812       .  S
S1699      H1702   1.399       .  S
S1700      H1701   1.407       .  S
C1705      C1706   1.411       .  A
C1705      C1710   1.401       .  A
C1706      C1707   1.411       .  A
C1706      H1715   1.083       .  S
C1707      C1708   1.409       .  A
C1707      S1711   1.794       .  S
C1708      C1709   1.410       .  A
C1709      C1710   1.398       .  A
C1709      H1716   1.070       .  S
C1710      S1712   1.799       .  S
S1711      H1714   1.406       .  S
S1712      H1713   1.406       .  S
C1717      C1718   1.395       .  A
C1717      C1722   1.418       .  A
C1718      C1719   1.400       .  A
C1718      H1727   1.076       .  S
C1719      C1720   1.415       .  A
C1719      S1723   1.809       .  S
C1720      C1721   1.398       .  A
C1721      C1722   1.406       .  A
C1721      H1728   1.083       .  S
C1722      S1724   1.808       .  S
S1723      H1726   1.407       .  S
S1724      H1725   1.407       .  S
C1729      C1730   1.407       .  A
C1729      C1734   1.411       .  A
C1730      C1731   1.415       .  A
C1730      H1739   1.083       .  S
C1731      C1732   1.419       .  A
C1731      S1735   1.801       .  S
C1732      C1733   1.400       .  A
C1733      C1734   1.387       .  A
C1733      H1740   1.084       .  S
C1734      S1736   1.787       .  S
S1735      H1738   1.408       .  S
S1736      H1737   1.407       .  S
C1741      C1742   1.407       .  A
C1741      C1746   1.409       .  A
C1742      C1743   1.396       .  A
C1742      H1751   1.084       .  S
C1743      C1744   1.416       .  A
C1743      S1747   1.801       .  S
C1744      C1745   1.406       .  A
C1745      C1746   1.398       .  A
C1745      H1752   1.081       .  S
C1746      S1748   1.793       .  S
S1747      H1750   1.408       .  S
S1748      H1749   1.404       .  S
C1753      C1754   1.399       .  A
C1753      C1758   1.412       .  A
C1754      C1755   1.400       .  A
C1754      H1763   1.083       .  S
C1755      C1756   1.416       .  A
C1755      S1759   1.804       .  S
C1756      C1757   1.400       .  A
C1757      C1758   1.395       .  A
C1757      H1764   1.085       .  S
C1758      S1760   1.800       .  S
S1759      H1762   1.399       .  S
S1760      H1761   1.403       .  S
C1765      C1766   1.408       .  A
C1765      C1770   1.402       .  A
C1766      C1767   1.405       .  A
C1766      H1775   1.084       .  S
C1767      C1768   1.408       .  A
C1767      S1771   1.795       .  S
C1768      C1769   1.410       .  A
C1769      C1770   1.397       .  A
C1769      H1776   1.075       .  S
C1770      S1772   1.804       .  S
S1771      H1774   1.406       .  S
S1772      H1773   1.407       .  S
C1777      C1778   1.401       .  A
C1777      C1782   1.405       .  A
C1778      C1779   1.403       .  A
C1778      H1787   1.084       .  S
C1779      C1780   1.421       .  A
C1779      S1783   1.799       .  S
C1780      C1781   1.412       .  A
C1781      C1782   1.404       .  A
C1781      H1788   1.082       .  S
C1782      S1784   1.797       .  S
S1783      H1786   1.395       .  S
S1784      H1785   1.405       .  S
C1789      C1790   1.395       .  A
C1789      C1794   1.416       .  A
C1790      C1791   1.404       .  A
C1790      H1799   1.083       .  S
C1791      C1792   1.429       .  A
C1791      S1795   1.812       .  S
C1792      C1793   1.401       .  A
C1793      C1794   1.396       .  A
C1793      H1800   1.084       .  S
C1794      S1796   1.800       .  S
S1795      H1798   1.406       .  S
S1796      H1797   1.405       .  S
C1801      C1802   1.413       .  A
C1801      C1806   1.418       .  A
C1802      C1803   1.416       .  A
C1802      H1811   1.083       .  S
C1803      C1804   1.415       .  A
C1803      S1807   1.800       .  S
C1804      C1805   1.404       .  A
C1805      C1806   1.395       .  A
C1805      H1812   1.084       .  S
C1806      S1808   1.802       .  S
S1807      H1810   1.402       .  S
S1808      H1809   1.407       .  S
C1813      C1814   1.404       .  A
C1813      C1818   1.417       .  A
C1814      C1815   1.396       .  A
C1814      H1823   1.084       .  S
C1815      C1816   1.419       .  A
C1815      S1819   1.800       .  S
C1816      C1817   1.403       .  A
C1817      C1818   1.396       .  A
C1817      H1824   1.084       .  S
C1818      S1820   1.800       .  S
S1819      H1822   1.400       .  S
S1820      H1821   1.406       .  S
C1825      C1826   1.405       .  A
C1825      C1830   1.400       .  A
C1826      C1827   1.397       .  A
C1826      H1835   1.082       .  S
C1827      C1828   1.406       .  A
C1827      S1831   1.802       .  S
C1828      C1829   1.406       .  A
C1829      C1830   1.387       .  A
C1829      H1836   1.085       .  S
C1830      S1832   1.797       .  S
S1831      H1834   1.406       .  S
S1832      H1833   1.406       .  S
C1837      C1838   1.414       .  A
C1837      C1842   1.408       .  A
C1838      C1839   1.401       .  A
C1838      H1847   1.084       .  S
C1839      C1840   1.406       .  A
C1839      S1843   1.808       .  S
C1840      C1841   1.403       .  A
C1841      C1842   1.394       .  A
C1841      H1848   1.084       .  S
C1842      S1844   1.800       .  S
S1843      H1846   1.403       .  S
S1844      H1845   1.408       .  S
C1849      C1850   1.404       .  A
C1849      C1854   1.411       .  A
C1850      C1851   1.407       .  A
C1850      H1859   1.076       .  S
C1851      C1852   1.418       .  A
C1851      S1855   1.807       .  S
C1852      C1853   1.405       .  A
C1853      C1854   1.395       .  A
C1853      H1860   1.083       .  S
C1854      S1856   1.802       .  S
S1855      H1858   1.406       .  S
S1856      H1857   1.408       .  S
C1861      C1862   1.401       .  A
C1861      C1866   1.409       .  A
C1862      C1863   1.403       .  A
C1862      H1871   1.083       .  S
C1863      C1864   1.420       .  A
C1863      S1867   1.810       .  S
C1864      C1865   1.409       .  A
C1865      C1866   1.402       .  A
C1865      H1872   1.083       .  S
C1866      S1868   1.798       .  S
S1867      H1870   1.407       .  S
S1868      H1869   1.406       .  S
C1873      C1874   1.405       .  A
C1873      C1878   1.407       .  A
C1874      C1875   1.410       .  A
C1874      H1883   1.083       .  S
C1875      C1876   1.417       .  A
C1875      S1879   1.807       .  S
C1876      C1877   1.412       .  A
C1877      C1878   1.398       .  A
C1877      H1884   1.082       .  S
C1878      S1880   1.804       .  S
S1879      H1882   1.407       .  S
S1880      H1881   1.406       .  S
C1885      C1886   1.389       .  A
C1885      C1890   1.415       .  A
C1886      C1887   1.382       .  A
C1886      H1895   1.076       .  S
C1887      C1888   1.427       .  A
C1887      S1891   1.811       .  S
C1888      C1889   1.413       .  A
C1889      C1890   1.419       .  A
C1889      H1896   1.083       .  S
C1890      S1892   1.800       .  S
S1891      H1894   1.408       .  S
S1892      H1893   1.406       .  S
C1897      C1898   1.409       .  A
C1897      C1902   1.407       .  A
C1898      C1899   1.397       .  A
C1898      H1907   1.083       .  S
C1899      C1900   1.404       .  A
C1899      S1903   1.801       .  S
C1900      C1901   1.405       .  A
C1901      C1902   1.397       .  A
C1901      H1908   1.084       .  S
C1902      S1904   1.805       .  S
S1903      H1906   1.403   1_554  S
S1904      H1905   1.407       .  S
C1909      C1910   1.411       .  A
C1909      C1914   1.413       .  A
C1910      C1911   1.398       .  A
C1910      H1919   1.084       .  S
C1911      C1912   1.411   1_455  A
C1911      S1915   1.802       .  S
C1912      C1913   1.407       .  A
C1913      C1914   1.389   1_655  A
C1913      H1920   1.084       .  S
C1914      S1916   1.800       .  S
S1915      H1918   1.408       .  S
S1916      H1917   1.403       .  S
C1921      C1922   1.405       .  A
C1921      C1926   1.413       .  A
C1922      C1923   1.398       .  A
C1922      H1931   1.082       .  S
C1923      C1924   1.411       .  A
C1923      S1927   1.800       .  S
C1924      C1925   1.413       .  A
C1925      C1926   1.412       .  A
C1925      H1932   1.082       .  S
C1926      S1928   1.802       .  S
S1927      H1930   1.408       .  S
S1928      H1929   1.404       .  S
C1933      C1934   1.399       .  A
C1933      C1938   1.411       .  A
C1934      C1935   1.385       .  A
C1934      H1943   1.083       .  S
C1935      C1936   1.404       .  A
C1935      S1939   1.811       .  S
C1936      C1937   1.399       .  A
C1937      C1938   1.400       .  A
C1937      H1944   1.083       .  S
C1938      S1940   1.807       .  S
S1939      H1942   1.407       .  S
S1940      H1941   1.407       .  S
C1945      C1946   1.411       .  A
C1945      C1950   1.401       .  A
C1946      C1947   1.407       .  A
C1946      H1955   1.084       .  S
C1947      C1948   1.411       .  A
C1947      S1951   1.802       .  S
C1948      C1949   1.404       .  A
C1949      C1950   1.375       .  A
C1949      H1956   1.071       .  S
C1950      S1952   1.806       .  S
S1951      H1954   1.401       .  S
S1952      H1953   1.394       .  S
C1957      C1958   1.398       .  A
C1957      C1962   1.426       .  A
C1958      C1959   1.403       .  A
C1958      H1967   1.082   1_455  S
C1959      C1960   1.423       .  A
C1959      S1963   1.807       .  S
C1960      C1961   1.393       .  A
C1961      C1962   1.389       .  A
C1961      H1968   1.084       .  S
C1962      S1964   1.800       .  S
S1963      H1966   1.406       .  S
S1964      H1965   1.405       .  S
C1969      C1970   1.397       .  A
C1969      C1974   1.409       .  A
C1970      C1971   1.391       .  A
C1970      H1979   1.079       .  S
C1971      C1972   1.417       .  A
C1971      S1975   1.801       .  S
C1972      C1973   1.413       .  A
C1973      C1974   1.408       .  A
C1973      H1980   1.083       .  S
C1974      S1976   1.802       .  S
S1975      H1978   1.402       .  S
S1976      H1977   1.406       .  S
C1981      C1982   1.400       .  A
C1981      C1986   1.416       .  A
C1982      C1983   1.400       .  A
C1982      H1991   1.084       .  S
C1983      C1984   1.417       .  A
C1983      S1987   1.805       .  S
C1984      C1985   1.406       .  A
C1985      C1986   1.415       .  A
C1985      H1992   1.083       .  S
C1986      S1988   1.805       .  S
S1987      H1990   1.407       .  S
S1988      H1989   1.406       .  S
C1993      C1994   1.401       .  A
C1993      C1998   1.413       .  A
C1994      C1995   1.398       .  A
C1994      H2003   1.084       .  S
C1995      C1996   1.417       .  A
C1995      S1999   1.803       .  S
C1996      C1997   1.411       .  A
C1997      C1998   1.404       .  A
C1997      H2004   1.084       .  S
C1998      S2000   1.807       .  S
S1999      H2002   1.408       .  S
S2000      H2001   1.401       .  S
C2005      C2006   1.405       .  A
C2005      C2010   1.411       .  A
C2006      C2007   1.400       .  A
C2006      H2015   1.083       .  S
C2007      C2008   1.416       .  A
C2007      S2011   1.801       .  S
C2008      C2009   1.406       .  A
C2009      C2010   1.395       .  A
C2009      H2016   1.083       .  S
C2010      S2012   1.799       .  S
S2011      H2014   1.407   1_554  S
S2012      H2013   1.396       .  S
C2017      C2018   1.403       .  A
C2017      C2022   1.412       .  A
C2018      C2019   1.403       .  A
C2018      H2027   1.084       .  S
C2019      C2020   1.419       .  A
C2019      S2023   1.797       .  S
C2020      C2021   1.411       .  A
C2021      C2022   1.400       .  A
C2021      H2028   1.084       .  S
C2022      S2024   1.800       .  S
S2023      H2026   1.408       .  S
S2024      H2025   1.402       .  S
C2029      C2030   1.396       .  A
C2029      C2034   1.420       .  A
C2030      C2031   1.391       .  A
C2030      H2039   1.079       .  S
C2031      C2032   1.412       .  A
C2031      S2035   1.784       .  S
C2032      C2033   1.404       .  A
C2033      C2034   1.401       .  A
C2033      H2040   1.081   1_545  S
C2034      S2036   1.800       .  S
S2035      H2038   1.407       .  S
S2036      H2037   1.407       .  S
C2041      C2042   1.398       .  A
C2041      C2046   1.408       .  A
C2042      C2043   1.394       .  A
C2042      H2051   1.084       .  S
C2043      C2044   1.411       .  A
C2043      S2047   1.797       .  S
C2044      C2045   1.400       .  A
C2045      C2046   1.395       .  A
C2045      H2052   1.084       .  S
C2046      S2048   1.804       .  S
S2047      H2050   1.402       .  S
S2048      H2049   1.407       .  S
C2053      C2054   1.398       .  A
C2053      C2058   1.420       .  A
C2054      C2055   1.381       .  A
C2054      H2063   1.085       .  S
C2055      C2056   1.405   1_455  A
C2055      S2059   1.795   1_455  S
C2056      C2057   1.400   1_655  A
C2057      C2058   1.403       .  A
C2057      H2064   1.084   1_455  S
C2058      S2060   1.806       .  S
S2059      H2062   1.397       .  S
S2060      H2061   1.395       .  S
C2065      C2066   1.398       .  A
C2065      C2070   1.420       .  A
C2066      C2067   1.386       .  A
C2066      H2075   1.084       .  S
C2067      C2068   1.417       .  A
C2067      S2071   1.804       .  S
C2068      C2069   1.401       .  A
C2069      C2070   1.408       .  A
C2069      H2076   1.083       .  S
C2070      S2072   1.808       .  S
S2071      H2074   1.404       .  S
S2072      H2073   1.407       .  S
C2077      C2078   1.402       .  A
C2077      C2082   1.405       .  A
C2078      C2079   1.393       .  A
C2078      H2087   1.081       .  S
C2079      C2080   1.405       .  A
C2079      S2083   1.800       .  S
C2080      C2081   1.401       .  A
C2081      C2082   1.390       .  A
C2081      H2088   1.085       .  S
C2082      S2084   1.793       .  S
S2083      H2086   1.404       .  S
S2084      H2085   1.405       .  S
C2089      C2090   1.398       .  A
C2089      C2094   1.416       .  A
C2090      C2091   1.405       .  A
C2090      H2099   1.083       .  S
C2091      C2092   1.423       .  A
C2091      S2095   1.793       .  S
C2092      C2093   1.409       .  A
C2093      C2094   1.407       .  A
C2093      H2100   1.084       .  S
C2094      S2096   1.800       .  S
S2095      H2098   1.406       .  S
S2096      H2097   1.398       .  S
C2101      C2102   1.409       .  A
C2101      C2106   1.411       .  A
C2102      C2103   1.398       .  A
C2102      H2111   1.084       .  S
C2103      C2104   1.412       .  A
C2103      S2107   1.798       .  S
C2104      C2105   1.410       .  A
C2105      C2106   1.393       .  A
C2105      H2112   1.084       .  S
C2106      S2108   1.803       .  S
S2107      H2110   1.402       .  S
S2108      H2109   1.404       .  S
C2113      C2114   1.397       .  A
C2113      C2118   1.423       .  A
C2114      C2115   1.394       .  A
C2114      H2123   1.084       .  S
C2115      C2116   1.421       .  A
C2115      S2119   1.804       .  S
C2116      C2117   1.397       .  A
C2117      C2118   1.396       .  A
C2117      H2124   1.082       .  S
C2118      S2120   1.812       .  S
S2119      H2122   1.406       .  S
S2120      H2121   1.406       .  S
C2125      C2126   1.404       .  A
C2125      C2130   1.414       .  A
C2126      C2127   1.395       .  A
C2126      H2135   1.084   1_554  S
C2127      C2128   1.416       .  A
C2127      S2131   1.797       .  S
C2128      C2129   1.409       .  A
C2129      C2130   1.403       .  A
C2129      H2136   1.084       .  S
C2130      S2132   1.801       .  S
S2131      H2134   1.407       .  S
S2132      H2133   1.395       .  S
C2137      C2138   1.410       .  A
C2137      C2142   1.409       .  A
C2138      C2139   1.397       .  A
C2138      H2147   1.083       .  S
C2139      C2140   1.405       .  A
C2139      S2143   1.801       .  S
C2140      C2141   1.406       .  A
C2141      C2142   1.395       .  A
C2141      H2148   1.085       .  S
C2142      S2144   1.801       .  S
S2143      H2146   1.404   1_545  S
S2144      H2145   1.407       .  S
C2149      C2150   1.408       .  A
C2149      C2154   1.399       .  A
C2150      C2151   1.406       .  A
C2150      H2159   1.084       .  S
C2151      C2152   1.409       .  A
C2151      S2155   1.800       .  S
C2152      C2153   1.402       .  A
C2153      C2154   1.389       .  A
C2153      H2160   1.077       .  S
C2154      S2156   1.794       .  S
S2155      H2158   1.404       .  S
S2156      H2157   1.407       .  S
C2161      C2162   1.402       .  A
C2161      C2166   1.417       .  A
C2162      C2163   1.416       .  A
C2162      H2171   1.079       .  S
C2163      C2164   1.424       .  A
C2163      S2167   1.807       .  S
C2164      C2165   1.400       .  A
C2165      C2166   1.397       .  A
C2165      H2172   1.084       .  S
C2166      S2168   1.788       .  S
S2167      H2170   1.406       .  S
S2168      H2169   1.408       .  S
C2173      C2174   1.401       .  A
C2173      C2178   1.411       .  A
C2174      C2175   1.389       .  A
C2174      H2183   1.084       .  S
C2175      C2176   1.411       .  A
C2175      S2179   1.813       .  S
C2176      C2177   1.405       .  A
C2177      C2178   1.405       .  A
C2177      H2184   1.079       .  S
C2178      S2180   1.799       .  S
S2179      H2182   1.407       .  S
S2180      H2181   1.402       .  S
C2185      C2186   1.406       .  A
C2185      C2190   1.415       .  A
C2186      C2187   1.395       .  A
C2186      H2195   1.084       .  S
C2187      C2188   1.414       .  A
C2187      S2191   1.806       .  S
C2188      C2189   1.402       .  A
C2189      C2190   1.404       .  A
C2189      H2196   1.084       .  S
C2190      S2192   1.784       .  S
S2191      H2194   1.405       .  S
S2192      H2193   1.406       .  S
C2197      C2198   1.409       .  A
C2197      C2202   1.420       .  A
C2198      C2199   1.409       .  A
C2198      H2207   1.084       .  S
C2199      C2200   1.417   1_455  A
C2199      S2203   1.803       .  S
C2200      C2201   1.405   1_655  A
C2201      C2202   1.403       .  A
C2201      H2208   1.083   1_455  S
C2202      S2204   1.801       .  S
S2203      H2206   1.404       .  S
S2204      H2205   1.406       .  S
C2209      C2210   1.401       .  A
C2209      C2214   1.401       .  A
C2210      C2211   1.400       .  A
C2210      H2219   1.084       .  S
C2211      C2212   1.417       .  A
C2211      S2215   1.803       .  S
C2212      C2213   1.405       .  A
C2213      C2214   1.388       .  A
C2213      H2220   1.084       .  S
C2214      S2216   1.789       .  S
S2215      H2218   1.408       .  S
S2216      H2217   1.405       .  S
C2221      C2222   1.402       .  A
C2221      C2226   1.410   1_554  A
C2222      C2223   1.392       .  A
C2222      H2231   1.085       .  S
C2223      C2224   1.413       .  A
C2223      S2227   1.806       .  S
C2224      C2225   1.406       .  A
C2225      C2226   1.399   1_554  A
C2225      H2232   1.084       .  S
C2226      S2228   1.802       .  S
S2227      H2230   1.393       .  S
S2228      H2229   1.398       .  S
C2233      C2234   1.406       .  A
C2233      C2238   1.410       .  A
C2234      C2235   1.396       .  A
C2234      H2243   1.084       .  S
C2235      C2236   1.409       .  A
C2235      S2239   1.800       .  S
C2236      C2237   1.408       .  A
C2237      C2238   1.406       .  A
C2237      H2244   1.080       .  S
C2238      S2240   1.800       .  S
S2239      H2242   1.407       .  S
S2240      H2241   1.407       .  S
C2245      C2246   1.398   1_655  A
C2245      C2250   1.414   1_655  A
C2246      C2247   1.394       .  A
C2246      H2255   1.084       .  S
C2247      C2248   1.412       .  A
C2247      S2251   1.793       .  S
C2248      C2249   1.401       .  A
C2249      C2250   1.402       .  A
C2249      H2256   1.083       .  S
C2250      S2252   1.801   1_455  S
S2251      H2254   1.403       .  S
S2252      H2253   1.407   1_655  S
C2257      C2258   1.407       .  A
C2257      C2262   1.416       .  A
C2258      C2259   1.401       .  A
C2258      H2267   1.084       .  S
C2259      C2260   1.421       .  A
C2259      S2263   1.802       .  S
C2260      C2261   1.412       .  A
C2261      C2262   1.412       .  A
C2261      H2268   1.083       .  S
C2262      S2264   1.801       .  S
S2263      H2266   1.408       .  S
S2264      H2265   1.407       .  S
C2269      C2270   1.397       .  A
C2269      C2274   1.410       .  A
C2270      C2271   1.387       .  A
C2270      H2279   1.084       .  S
C2271      C2272   1.410       .  A
C2271      S2275   1.801       .  S
C2272      C2273   1.404       .  A
C2273      C2274   1.400       .  A
C2273      H2280   1.084       .  S
C2274      S2276   1.802       .  S
S2275      H2278   1.405       .  S
S2276      H2277   1.403       .  S
C2281      C2282   1.399       .  A
C2281      C2286   1.410       .  A
C2282      C2283   1.393       .  A
C2282      H2291   1.085       .  S
C2283      C2284   1.414       .  A
C2283      S2287   1.805       .  S
C2284      C2285   1.406       .  A
C2285      C2286   1.399       .  A
C2285      H2292   1.084       .  S
C2286      S2288   1.804       .  S
S2287      H2290   1.407       .  S
S2288      H2289   1.405       .  S
C2293      C2294   1.403       .  A
C2293      C2298   1.418       .  A
C2294      C2295   1.406       .  A
C2294      H2303   1.084       .  S
C2295      C2296   1.420       .  A
C2295      S2299   1.800       .  S
C2296      C2297   1.400       .  A
C2297      C2298   1.395       .  A
C2297      H2304   1.085       .  S
C2298      S2300   1.796       .  S
S2299      H2302   1.402       .  S
S2300      H2301   1.402       .  S
C2305      C2306   1.406       .  A
C2305      C2310   1.416       .  A
C2306      C2307   1.395       .  A
C2306      H2315   1.084       .  S
C2307      C2308   1.412       .  A
C2307      S2311   1.800       .  S
C2308      C2309   1.403       .  A
C2309      C2310   1.395       .  A
C2309      H2316   1.083       .  S
C2310      S2312   1.801       .  S
S2311      H2314   1.408       .  S
S2312      H2313   1.400       .  S
C2317      C2318   1.400   1_545  A
C2317      C2322   1.410       .  A
C2318      C2319   1.402   1_565  A
C2318      H2327   1.083       .  S
C2319      C2320   1.418       .  A
C2319      S2323   1.807       .  S
C2320      C2321   1.404       .  A
C2321      C2322   1.392       .  A
C2321      H2328   1.084       .  S
C2322      S2324   1.804       .  S
S2323      H2326   1.407   1_545  S
S2324      H2325   1.401       .  S
C2329      C2330   1.409       .  A
C2329      C2334   1.415       .  A
C2330      C2331   1.411       .  A
C2330      H2339   1.083       .  S
C2331      C2332   1.416       .  A
C2331      S2335   1.800       .  S
C2332      C2333   1.404       .  A
C2333      C2334   1.393       .  A
C2333      H2340   1.081       .  S
C2334      S2336   1.805       .  S
S2335      H2338   1.407       .  S
S2336      H2337   1.406       .  S
C2341      C2342   1.407       .  A
C2341      C2346   1.420       .  A
C2342      C2343   1.399       .  A
C2342      H2351   1.084       .  S
C2343      C2344   1.414       .  A
C2343      S2347   1.804       .  S
C2344      C2345   1.402       .  A
C2345      C2346   1.401       .  A
C2345      H2352   1.084       .  S
C2346      S2348   1.800       .  S
S2347      H2350   1.408       .  S
S2348      H2349   1.408       .  S
C2353      C2354   1.412       .  A
C2353      C2358   1.415       .  A
C2354      C2355   1.405       .  A
C2354      H2363   1.083       .  S
C2355      C2356   1.415       .  A
C2355      S2359   1.802       .  S
C2356      C2357   1.412       .  A
C2357      C2358   1.405       .  A
C2357      H2364   1.083       .  S
C2358      S2360   1.798       .  S
S2359      H2362   1.408       .  S
S2360      H2361   1.404       .  S
C2365      C2366   1.399       .  A
C2365      C2370   1.419       .  A
C2366      C2367   1.393       .  A
C2366      H2375   1.084       .  S
C2367      C2368   1.418       .  A
C2367      S2371   1.799       .  S
C2368      C2369   1.399       .  A
C2369      C2370   1.393       .  A
C2369      H2376   1.084       .  S
C2370      S2372   1.802       .  S
S2371      H2374   1.405       .  S
S2372      H2373   1.403       .  S
C2377      C2378   1.412   1_655  A
C2377      C2382   1.415       .  A
C2378      C2379   1.398       .  A
C2378      H2387   1.082   1_455  S
C2379      C2380   1.401       .  A
C2379      S2383   1.801       .  S
C2380      C2381   1.401       .  A
C2381      C2382   1.394   1_455  A
C2381      H2388   1.085       .  S
C2382      S2384   1.801       .  S
S2383      H2386   1.405       .  S
S2384      H2385   1.407       .  S
C2389      C2390   1.403       .  A
C2389      C2394   1.413       .  A
C2390      C2391   1.404       .  A
C2390      H2399   1.085       .  S
C2391      C2392   1.421       .  A
C2391      S2395   1.806       .  S
C2392      C2393   1.405   1_545  A
C2393      C2394   1.405   1_565  A
C2393      H2400   1.085       .  S
C2394      S2396   1.795   1_545  S
S2395      H2398   1.390       .  S
S2396      H2397   1.405   1_565  S
C2401      C2402   1.400       .  A
C2401      C2406   1.420       .  A
C2402      C2403   1.410       .  A
C2402      H2411   1.078       .  S
C2403      C2404   1.428       .  A
C2403      S2407   1.798       .  S
C2404      C2405   1.412       .  A
C2405      C2406   1.415       .  A
C2405      H2412   1.083       .  S
C2406      S2408   1.801       .  S
S2407      H2410   1.397       .  S
S2408      H2409   1.408       .  S
C2413      C2414   1.407       .  A
C2413      C2418   1.407       .  A
C2414      C2415   1.411       .  A
C2414      H2423   1.084       .  S
C2415      C2416   1.416       .  A
C2415      S2419   1.794       .  S
C2416      C2417   1.411       .  A
C2417      C2418   1.397       .  A
C2417      H2424   1.084       .  S
C2418      S2420   1.794       .  S
S2419      H2422   1.407       .  S
S2420      H2421   1.406       .  S
C2425      C2426   1.399       .  A
C2425      C2430   1.422       .  A
C2426      C2427   1.402   1_655  A
C2426      H2435   1.075       .  S
C2427      C2428   1.426       .  A
C2427      S2431   1.815       .  S
C2428      C2429   1.416       .  A
C2429      C2430   1.430   1_455  A
C2429      H2436   1.083       .  S
C2430      S2432   1.802       .  S
S2431      H2434   1.407   1_455  S
S2432      H2433   1.404       .  S
C2437      C2438   1.409       .  A
C2437      C2442   1.403       .  A
C2438      C2439   1.411   1_565  A
C2438      H2447   1.084       .  S
C2439      C2440   1.414       .  A
C2439      S2443   1.801       .  S
C2440      C2441   1.405       .  A
C2441      C2442   1.389   1_545  A
C2441      H2448   1.076       .  S
C2442      S2444   1.801       .  S
S2443      H2446   1.402       .  S
S2444      H2445   1.406       .  S
C2449      C2450   1.405       .  A
C2449      C2454   1.426       .  A
C2450      C2451   1.410       .  A
C2450      H2459   1.082       .  S
C2451      C2452   1.422       .  A
C2451      S2455   1.810       .  S
C2452      C2453   1.402       .  A
C2453      C2454   1.411       .  A
C2453      H2460   1.084       .  S
C2454      S2456   1.803       .  S
S2455      H2458   1.406       .  S
S2456      H2457   1.408       .  S
C2461      C2462   1.396       .  A
C2461      C2466   1.412       .  A
C2462      C2463   1.386       .  A
C2462      H2471   1.076       .  S
C2463      C2464   1.415       .  A
C2463      S2467   1.803       .  S
C2464      C2465   1.406       .  A
C2465      C2466   1.405       .  A
C2465      H2472   1.084       .  S
C2466      S2468   1.801       .  S
S2467      H2470   1.407       .  S
S2468      H2469   1.403       .  S
C2473      C2474   1.414       .  A
C2473      C2478   1.416       .  A
C2474      C2475   1.398   1_655  A
C2474      H2483   1.083       .  S
C2475      C2476   1.402       .  A
C2475      S2479   1.797       .  S
C2476      C2477   1.405       .  A
C2477      C2478   1.401   1_455  A
C2477      H2484   1.084       .  S
C2478      S2480   1.800       .  S
S2479      H2482   1.407       .  S
S2480      H2481   1.407       .  S
C2485      C2486   1.399       .  A
C2485      C2490   1.411       .  A
C2486      C2487   1.397       .  A
C2486      H2495   1.084       .  S
C2487      C2488   1.422       .  A
C2487      S2491   1.801       .  S
C2488      C2489   1.409       .  A
C2489      C2490   1.402       .  A
C2489      H2496   1.083       .  S
C2490      S2492   1.803       .  S
S2491      H2494   1.407       .  S
S2492      H2493   1.404       .  S
C2497      C2498   1.412   1_565  A
C2497      C2502   1.418       .  A
C2498      C2499   1.411   1_545  A
C2498      H2507   1.084       .  S
C2499      C2500   1.416       .  A
C2499      S2503   1.799       .  S
C2500      C2501   1.399       .  A
C2501      C2502   1.394       .  A
C2501      H2508   1.075       .  S
C2502      S2504   1.806       .  S
S2503      H2506   1.405       .  S
S2504      H2505   1.392       .  S
C2509      C2510   1.392       .  A
C2509      C2514   1.413       .  A
C2510      C2511   1.393       .  A
C2510      H2519   1.083       .  S
C2511      C2512   1.421       .  A
C2511      S2515   1.788       .  S
C2512      C2513   1.410       .  A
C2513      C2514   1.406       .  A
C2513      H2520   1.083       .  S
C2514      S2516   1.802       .  S
S2515      H2518   1.408       .  S
S2516      H2517   1.405       .  S
C2521      C2522   1.398       .  A
C2521      C2526   1.418       .  A
C2522      C2523   1.385       .  A
C2522      H2531   1.084       .  S
C2523      C2524   1.414       .  A
C2523      S2527   1.782       .  S
C2524      C2525   1.409       .  A
C2525      C2526   1.416       .  A
C2525      H2532   1.083       .  S
C2526      S2528   1.800       .  S
S2527      H2530   1.406       .  S
S2528      H2529   1.407       .  S
C2533      C2534   1.397       .  A
C2533      C2538   1.418       .  A
C2534      C2535   1.406   1_565  A
C2534      H2543   1.084       .  S
C2535      C2536   1.422       .  A
C2535      S2539   1.790       .  S
C2536      C2537   1.398       .  A
C2537      C2538   1.402   1_545  A
C2537      H2544   1.079       .  S
C2538      S2540   1.804       .  S
S2539      H2542   1.407       .  S
S2540      H2541   1.407       .  S
C2545      C2546   1.403       .  A
C2545      C2550   1.416   1_545  A
C2546      C2547   1.393   1_645  A
C2546      H2555   1.084       .  S
C2547      C2548   1.415       .  A
C2547      S2551   1.802   1_565  S
C2548      C2549   1.401   1_455  A
C2549      C2550   1.405       .  A
C2549      H2556   1.068       .  S
C2550      S2552   1.810       .  S
S2551      H2554   1.392   1_545  S
S2552      H2553   1.406       .  S
C2557      C2558   1.404       .  A
C2557      C2562   1.409       .  A
C2558      C2559   1.398       .  A
C2558      H2567   1.082       .  S
C2559      C2560   1.411       .  A
C2559      S2563   1.805       .  S
C2560      C2561   1.407       .  A
C2561      C2562   1.402       .  A
C2561      H2568   1.084       .  S
C2562      S2564   1.801       .  S
S2563      H2566   1.407       .  S
S2564      H2565   1.405       .  S
C2569      C2570   1.401       .  A
C2569      C2574   1.420       .  A
C2570      C2571   1.391       .  A
C2570      H2579   1.084       .  S
C2571      C2572   1.412   1_655  A
C2571      S2575   1.800   1_655  S
C2572      C2573   1.397   1_455  A
C2573      C2574   1.399       .  A
C2573      H2580   1.084   1_655  S
C2574      S2576   1.804       .  S
S2575      H2578   1.406       .  S
S2576      H2577   1.408       .  S
C2581      C2582   1.400       .  A
C2581      C2586   1.419       .  A
C2582      C2583   1.395       .  A
C2582      H2591   1.083       .  S
C2583      C2584   1.427       .  A
C2583      S2587   1.813       .  S
C2584      C2585   1.410       .  A
C2585      C2586   1.413       .  A
C2585      H2592   1.084       .  S
C2586      S2588   1.801       .  S
S2587      H2590   1.388       .  S
S2588      H2589   1.397       .  S
C2593      C2594   1.402       .  A
C2593      C2598   1.408       .  A
C2594      C2595   1.404       .  A
C2594      H2603   1.084       .  S
C2595      C2596   1.411       .  A
C2595      S2599   1.795       .  S
C2596      C2597   1.402       .  A
C2597      C2598   1.400       .  A
C2597      H2604   1.080       .  S
C2598      S2600   1.799       .  S
S2599      H2602   1.407       .  S
S2600      H2601   1.406       .  S
C2605      C2606   1.409       .  A
C2605      C2610   1.414       .  A
C2606      C2607   1.414       .  A
C2606      H2615   1.083       .  S
C2607      C2608   1.418       .  A
C2607      S2611   1.797       .  S
C2608      C2609   1.406       .  A
C2609      C2610   1.388       .  A
C2609      H2616   1.084       .  S
C2610      S2612   1.802       .  S
S2611      H2614   1.400       .  S
S2612      H2613   1.407       .  S
C2617      C2618   1.409       .  A
C2617      C2622   1.424   1_565  A
C2618      C2619   1.413   1_565  A
C2618      H2627   1.083       .  S
C2619      C2620   1.419       .  A
C2619      S2623   1.802       .  S
C2620      C2621   1.401       .  A
C2621      C2622   1.398       .  A
C2621      H2628   1.082       .  S
C2622      S2624   1.796   1_545  S
S2623      H2626   1.408       .  S
S2624      H2625   1.408       .  S
C2629      C2630   1.399       .  A
C2629      C2634   1.411       .  A
C2630      C2631   1.400   1_565  A
C2630      H2639   1.083       .  S
C2631      C2632   1.420       .  A
C2631      S2635   1.809       .  S
C2632      C2633   1.409       .  A
C2633      C2634   1.405   1_545  A
C2633      H2640   1.084       .  S
C2634      S2636   1.801       .  S
S2635      H2638   1.406       .  S
S2636      H2637   1.403       .  S
C2641      C2642   1.399       .  A
C2641      C2646   1.416       .  A
C2642      C2643   1.394       .  A
C2642      H2651   1.081       .  S
C2643      C2644   1.419       .  A
C2643      S2647   1.801       .  S
C2644      C2645   1.410       .  A
C2645      C2646   1.414       .  A
C2645      H2652   1.084       .  S
C2646      S2648   1.801       .  S
S2647      H2650   1.391       .  S
S2648      H2649   1.406       .  S
C2653      C2654   1.411       .  A
C2653      C2658   1.415       .  A
C2654      C2655   1.412       .  A
C2654      H2663   1.083       .  S
C2655      C2656   1.412       .  A
C2655      S2659   1.802       .  S
C2656      C2657   1.393       .  A
C2657      C2658   1.388       .  A
C2657      H2664   1.083       .  S
C2658      S2660   1.784       .  S
S2659      H2662   1.406       .  S
S2660      H2661   1.399       .  S
C2665      C2666   1.410       .  A
C2665      C2670   1.420       .  A
C2666      C2667   1.396       .  A
C2666      H2675   1.081       .  S
C2667      C2668   1.406       .  A
C2667      S2671   1.798       .  S
C2668      C2669   1.405       .  A
C2669      C2670   1.410       .  A
C2669      H2676   1.080       .  S
C2670      S2672   1.801       .  S
S2671      H2674   1.407       .  S
S2672      H2673   1.408       .  S
C2677      C2678   1.398       .  A
C2677      C2682   1.408       .  A
C2678      C2679   1.391       .  A
C2678      H2687   1.078       .  S
C2679      C2680   1.408       .  A
C2679      S2683   1.798       .  S
C2680      C2681   1.404       .  A
C2681      C2682   1.395       .  A
C2681      H2688   1.082       .  S
C2682      S2684   1.801       .  S
S2683      H2686   1.407       .  S
S2684      H2685   1.406       .  S
C2689      C2690   1.402       .  A
C2689      C2694   1.418       .  A
C2690      C2691   1.409       .  A
C2690      H2699   1.082       .  S
C2691      C2692   1.426       .  A
C2691      S2695   1.810       .  S
C2692      C2693   1.405       .  A
C2693      C2694   1.400       .  A
C2693      H2700   1.083       .  S
C2694      S2696   1.805       .  S
S2695      H2698   1.407       .  S
S2696      H2697   1.408       .  S
C2701      C2702   1.396       .  A
C2701      C2706   1.410       .  A
C2702      C2703   1.399   1_655  A
C2702      H2711   1.081       .  S
C2703      C2704   1.423       .  A
C2703      S2707   1.807       .  S
C2704      C2705   1.411       .  A
C2705      C2706   1.406   1_455  A
C2705      H2712   1.083       .  S
C2706      S2708   1.801       .  S
S2707      H2710   1.407       .  S
S2708      H2709   1.404       .  S
C2713      C2714   1.399       .  A
C2713      C2718   1.420       .  A
C2714      C2715   1.389       .  A
C2714      H2723   1.084       .  S
C2715      C2716   1.409   1_655  A
C2715      S2719   1.789       .  S
C2716      C2717   1.409       .  A
C2717      C2718   1.418   1_455  A
C2717      H2724   1.083       .  S
C2718      S2720   1.804       .  S
S2719      H2722   1.405       .  S
S2720      H2721   1.401       .  S
C2725      C2726   1.400       .  A
C2725      C2730   1.414       .  A
C2726      C2727   1.399       .  A
C2726      H2735   1.083       .  S
C2727      C2728   1.425       .  A
C2727      S2731   1.813       .  S
C2728      C2729   1.413       .  A
C2729      C2730   1.415       .  A
C2729      H2736   1.083       .  S
C2730      S2732   1.802       .  S
S2731      H2734   1.407       .  S
S2732      H2733   1.405       .  S
C2737      C2738   1.409       .  A
C2737      C2742   1.412       .  A
C2738      C2739   1.412   1_565  A
C2738      H2747   1.083       .  S
C2739      C2740   1.412       .  A
C2739      S2743   1.802       .  S
C2740      C2741   1.391       .  A
C2741      C2742   1.384   1_545  A
C2741      H2748   1.076       .  S
C2742      S2744   1.798       .  S
S2743      H2746   1.403       .  S
S2744      H2745   1.407       .  S
C2749      C2750   1.402       .  A
C2749      C2754   1.416       .  A
C2750      C2751   1.404   1_455  A
C2750      H2759   1.076       .  S
C2751      C2752   1.418       .  A
C2751      S2755   1.801       .  S
C2752      C2753   1.404       .  A
C2753      C2754   1.397   1_655  A
C2753      H2760   1.083       .  S
C2754      S2756   1.797       .  S
S2755      H2758   1.408       .  S
S2756      H2757   1.405       .  S
C2761      C2762   1.388       .  A
C2761      C2766   1.414       .  A
C2762      C2763   1.385   1_565  A
C2762      H2771   1.085       .  S
C2763      C2764   1.425       .  A
C2763      S2767   1.796       .  S
C2764      C2765   1.401   1_545  A
C2765      C2766   1.396       .  A
C2765      H2772   1.082       .  S
C2766      S2768   1.811       .  S
S2767      H2770   1.407       .  S
S2768      H2769   1.407       .  S
C2773      C2774   1.395       .  A
C2773      C2778   1.417       .  A
C2774      C2775   1.399   1_655  A
C2774      H2783   1.083       .  S
C2775      C2776   1.426   1_455  A
C2775      S2779   1.803       .  S
C2776      C2777   1.392       .  A
C2777      C2778   1.387       .  A
C2777      H2784   1.066       .  S
C2778      S2780   1.807       .  S
S2779      H2782   1.390       .  S
S2780      H2781   1.405       .  S
C2785      C2786   1.409       .  A
C2785      C2790   1.409       .  A
C2786      C2787   1.396       .  A
C2786      H2795   1.084       .  S
C2787      C2788   1.409       .  A
C2787      S2791   1.803       .  S
C2788      C2789   1.407       .  A
C2789      C2790   1.394       .  A
C2789      H2796   1.084       .  S
C2790      S2792   1.801       .  S
S2791      H2794   1.407       .  S
S2792      H2793   1.406       .  S
C2797      C2798   1.404       .  A
C2797      C2802   1.421       .  A
C2798      C2799   1.401       .  A
C2798      H2807   1.084       .  S
C2799      C2800   1.413       .  A
C2799      S2803   1.802       .  S
C2800      C2801   1.394       .  A
C2801      C2802   1.389       .  A
C2801      H2808   1.085       .  S
C2802      S2804   1.801       .  S
S2803      H2806   1.407       .  S
S2804      H2805   1.407       .  S
C2809      C2810   1.408       .  A
C2809      C2814   1.409       .  A
C2810      C2811   1.400       .  A
C2810      H2819   1.083       .  S
C2811      C2812   1.415       .  A
C2811      S2815   1.811       .  S
C2812      C2813   1.410       .  A
C2813      C2814   1.403       .  A
C2813      H2820   1.081       .  S
C2814      S2816   1.800       .  S
S2815      H2818   1.407       .  S
S2816      H2817   1.407       .  S
C2821      C2822   1.404       .  A
C2821      C2826   1.405       .  A
C2822      C2823   1.403       .  A
C2822      H2831   1.084       .  S
C2823      C2824   1.415       .  A
C2823      S2827   1.806       .  S
C2824      C2825   1.402       .  A
C2825      C2826   1.389       .  A
C2825      H2832   1.083       .  S
C2826      S2828   1.803       .  S
S2827      H2830   1.402       .  S
S2828      H2829   1.407       .  S
C2833      C2834   1.411       .  A
C2833      C2838   1.412       .  A
C2834      C2835   1.417       .  A
C2834      H2843   1.083       .  S
C2835      C2836   1.416       .  A
C2835      S2839   1.800       .  S
C2836      C2837   1.403       .  A
C2837      C2838   1.388       .  A
C2837      H2844   1.084       .  S
C2838      S2840   1.794       .  S
S2839      H2842   1.406       .  S
S2840      H2841   1.403       .  S
C2845      C2846   1.397       .  A
C2845      C2850   1.411       .  A
C2846      C2847   1.397       .  A
C2846      H2855   1.084       .  S
C2847      C2848   1.416       .  A
C2847      S2851   1.789       .  S
C2848      C2849   1.404       .  A
C2849      C2850   1.400       .  A
C2849      H2856   1.084       .  S
C2850      S2852   1.795       .  S
S2851      H2854   1.405       .  S
S2852      H2853   1.403       .  S
C2857      C2858   1.410       .  A
C2857      C2862   1.404       .  A
C2858      C2859   1.417   1_655  A
C2858      H2867   1.083       .  S
C2859      C2860   1.419       .  A
C2859      S2863   1.801       .  S
C2860      C2861   1.405       .  A
C2861      C2862   1.384   1_455  A
C2861      H2868   1.076       .  S
C2862      S2864   1.800       .  S
S2863      H2866   1.401       .  S
S2864      H2865   1.406       .  S
C2869      C2870   1.401       .  A
C2869      C2874   1.414       .  A
C2870      C2871   1.407   1_556  A
C2870      H2879   1.084       .  S
C2871      C2872   1.420       .  A
C2871      S2875   1.796       .  S
C2872      C2873   1.406       .  A
C2873      C2874   1.404   1_554  A
C2873      H2880   1.084       .  S
C2874      S2876   1.804       .  S
S2875      H2878   1.407       .  S
S2876      H2877   1.404       .  S
C2881      C2882   1.391       .  A
C2881      C2886   1.415       .  A
C2882      C2883   1.387       .  A
C2882      H2891   1.085       .  S
C2883      C2884   1.430       .  A
C2883      S2887   1.806       .  S
C2884      C2885   1.403       .  A
C2885      C2886   1.399       .  A
C2885      H2892   1.084       .  S
C2886      S2888   1.804       .  S
S2887      H2890   1.407       .  S
S2888      H2889   1.406       .  S
C2893      C2894   1.403       .  A
C2893      C2898   1.418       .  A
C2894      C2895   1.413       .  A
C2894      H2903   1.084       .  S
C2895      C2896   1.430       .  A
C2895      S2899   1.802       .  S
C2896      C2897   1.409       .  A
C2897      C2898   1.410       .  A
C2897      H2904   1.083       .  S
C2898      S2900   1.801       .  S
S2899      H2902   1.408       .  S
S2900      H2901   1.407       .  S
C2905      C2906   1.402       .  A
C2905      C2910   1.417       .  A
C2906      C2907   1.397       .  A
C2906      H2915   1.084       .  S
C2907      C2908   1.419       .  A
C2907      S2911   1.804       .  S
C2908      C2909   1.404       .  A
C2909      C2910   1.397       .  A
C2909      H2916   1.084       .  S
C2910      S2912   1.802       .  S
S2911      H2914   1.408       .  S
S2912      H2913   1.407       .  S
C2917      C2918   1.401       .  A
C2917      C2922   1.411   1_554  A
C2918      C2919   1.407       .  A
C2918      H2927   1.083       .  S
C2919      C2920   1.417   1_554  A
C2919      S2923   1.801       .  S
C2920      C2921   1.398       .  A
C2921      C2922   1.388       .  A
C2921      H2928   1.084       .  S
C2922      S2924   1.796       .  S
S2923      H2926   1.407       .  S
S2924      H2925   1.406       .  S
C2929      C2930   1.396       .  A
C2929      C2934   1.416       .  A
C2930      C2931   1.399   1_655  A
C2930      H2939   1.084       .  S
C2931      C2932   1.426       .  A
C2931      S2935   1.804       .  S
C2932      C2933   1.405       .  A
C2933      C2934   1.403   1_455  A
C2933      H2940   1.084       .  S
C2934      S2936   1.801       .  S
S2935      H2938   1.404       .  S
S2936      H2937   1.403       .  S
C2941      C2942   1.405       .  A
C2941      C2946   1.411       .  A
C2942      C2943   1.406       .  A
C2942      H2951   1.083       .  S
C2943      C2944   1.420       .  A
C2943      S2947   1.802       .  S
C2944      C2945   1.412       .  A
C2945      C2946   1.405       .  A
C2945      H2952   1.083       .  S
C2946      S2948   1.799       .  S
S2947      H2950   1.408       .  S
S2948      H2949   1.406       .  S
C2953      C2954   1.405       .  A
C2953      C2958   1.413       .  A
C2954      C2955   1.394       .  A
C2954      H2963   1.079       .  S
C2955      C2956   1.415       .  A
C2955      S2959   1.803       .  S
C2956      C2957   1.410       .  A
C2957      C2958   1.407       .  A
C2957      H2964   1.084       .  S
C2958      S2960   1.801       .  S
S2959      H2962   1.395       .  S
S2960      H2961   1.407       .  S
C2965      C2966   1.405       .  A
C2965      C2970   1.409       .  A
C2966      C2967   1.387       .  A
C2966      H2975   1.081       .  S
C2967      C2968   1.402       .  A
C2967      S2971   1.796       .  S
C2968      C2969   1.405       .  A
C2969      C2970   1.398       .  A
C2969      H2976   1.084       .  S
C2970      S2972   1.798       .  S
S2971      H2974   1.401       .  S
S2972      H2973   1.407       .  S
C2977      C2978   1.399       .  A
C2977      C2982   1.414       .  A
C2978      C2979   1.394       .  A
C2978      H2987   1.085       .  S
C2979      C2980   1.411   1_655  A
C2979      S2983   1.798   1_655  S
C2980      C2981   1.402       .  A
C2981      C2982   1.404   1_455  A
C2981      H2988   1.084       .  S
C2982      S2984   1.799       .  S
S2983      H2986   1.404       .  S
S2984      H2985   1.406       .  S
C2989      C2990   1.403       .  A
C2989      C2994   1.408       .  A
C2990      C2991   1.404   1_556  A
C2990      H2999   1.084       .  S
C2991      C2992   1.422       .  A
C2991      S2995   1.802       .  S
C2992      C2993   1.412       .  A
C2993      C2994   1.404   1_554  A
C2993      H3000   1.083       .  S
C2994      S2996   1.802       .  S
S2995      H2998   1.407       .  S
S2996      H2997   1.406       .  S
C3001      C3002   1.409   1_455  A
C3001      C3006   1.418   1_556  A
C3002      C3003   1.397   1_556  A
C3002      H3011   1.083       .  S
C3003      C3004   1.410       .  A
C3003      S3007   1.804       .  S
C3004      C3005   1.403       .  A
C3005      C3006   1.403   1_655  A
C3005      H3012   1.082       .  S
C3006      S3008   1.799       .  S
S3007      H3010   1.407       .  S
S3008      H3009   1.406       .  S
C3013      C3014   1.397       .  A
C3013      C3018   1.421       .  A
C3014      C3015   1.393       .  A
C3014      H3023   1.081       .  S
C3015      C3016   1.430       .  A
C3015      S3019   1.807       .  S
C3016      C3017   1.409       .  A
C3017      C3018   1.415       .  A
C3017      H3024   1.083       .  S
C3018      S3020   1.797       .  S
S3019      H3022   1.408       .  S
S3020      H3021   1.408       .  S
C3025      C3026   1.405       .  A
C3025      C3030   1.402       .  A
C3026      C3027   1.396       .  A
C3026      H3035   1.083       .  S
C3027      C3028   1.412       .  A
C3027      S3031   1.806       .  S
C3028      C3029   1.414       .  A
C3029      C3030   1.396       .  A
C3029      H3036   1.083       .  S
C3030      S3032   1.800       .  S
S3031      H3034   1.408       .  S
S3032      H3033   1.406       .  S
C3037      C3038   1.408       .  A
C3037      C3042   1.420       .  A
C3038      C3039   1.407       .  A
C3038      H3047   1.084       .  S
C3039      C3040   1.421       .  A
C3039      S3043   1.799       .  S
C3040      C3041   1.409       .  A
C3041      C3042   1.407       .  A
C3041      H3048   1.083       .  S
C3042      S3044   1.799       .  S
S3043      H3046   1.407       .  S
S3044      H3045   1.407       .  S
C3049      C3050   1.396       .  A
C3049      C3054   1.418       .  A
C3050      C3051   1.399       .  A
C3050      H3059   1.084       .  S
C3051      C3052   1.424   1_554  A
C3051      S3055   1.806   1_554  S
C3052      C3053   1.399       .  A
C3053      C3054   1.400   1_556  A
C3053      H3060   1.083       .  S
C3054      S3056   1.798       .  S
S3055      H3058   1.408       .  S
S3056      H3057   1.405       .  S
C3061      C3062   1.410       .  A
C3061      C3066   1.411       .  A
C3062      C3063   1.403       .  A
C3062      H3071   1.084       .  S
C3063      C3064   1.407       .  A
C3063      S3067   1.802   1_556  S
C3064      C3065   1.400       .  A
C3065      C3066   1.387       .  A
C3065      H3072   1.083       .  S
C3066      S3068   1.800       .  S
S3067      H3070   1.406       .  S
S3068      H3069   1.404       .  S
C3073      C3074   1.405       .  A
C3073      C3078   1.411       .  A
C3074      C3075   1.381       .  A
C3074      H3083   1.080       .  S
C3075      C3076   1.408       .  A
C3075      S3079   1.804       .  S
C3076      C3077   1.414       .  A
C3077      C3078   1.413       .  A
C3077      H3084   1.083       .  S
C3078      S3080   1.802       .  S
S3079      H3082   1.406       .  S
S3080      H3081   1.403       .  S
C3085      C3086   1.400       .  A
C3085      C3090   1.426       .  A
C3086      C3087   1.403   1_655  A
C3086      H3095   1.084       .  S
C3087      C3088   1.420       .  A
C3087      S3091   1.790       .  S
C3088      C3089   1.401       .  A
C3089      C3090   1.410   1_455  A
C3089      H3096   1.083       .  S
C3090      S3092   1.804       .  S
S3091      H3094   1.402       .  S
S3092      H3093   1.408       .  S
C3097      C3098   1.404       .  A
C3097      C3102   1.416       .  A
C3098      C3099   1.413   1_556  A
C3098      H3107   1.083       .  S
C3099      C3100   1.418       .  A
C3099      S3103   1.794       .  S
C3100      C3101   1.405       .  A
C3101      C3102   1.404   1_554  A
C3101      H3108   1.084       .  S
C3102      S3104   1.803       .  S
S3103      H3106   1.404       .  S
S3104      H3105   1.406       .  S
C3109      C3110   1.407       .  A
C3109      C3114   1.415       .  A
C3110      C3111   1.389   1_556  A
C3110      H3119   1.084   1_556  S
C3111      C3112   1.407       .  A
C3111      S3115   1.805       .  S
C3112      C3113   1.398   1_554  A
C3113      C3114   1.392       .  A
C3113      H3120   1.084       .  S
C3114      S3116   1.807       .  S
S3115      H3118   1.396       .  S
S3116      H3117   1.407       .  S
C3121      C3122   1.401       .  A
C3121      C3126   1.411       .  A
C3122      C3123   1.390       .  A
C3122      H3131   1.085       .  S
C3123      C3124   1.414       .  A
C3123      S3127   1.805       .  S
C3124      C3125   1.400       .  A
C3125      C3126   1.395       .  A
C3125      H3132   1.084       .  S
C3126      S3128   1.785       .  S
S3127      H3130   1.407   1_655  S
S3128      H3129   1.403       .  S
C3133      C3134   1.403       .  A
C3133      C3138   1.412       .  A
C3134      C3135   1.402       .  A
C3134      H3143   1.084       .  S
C3135      C3136   1.419       .  A
C3135      S3139   1.801       .  S
C3136      C3137   1.410       .  A
C3137      C3138   1.404       .  A
C3137      H3144   1.083       .  S
C3138      S3140   1.799       .  S
S3139      H3142   1.407       .  S
S3140      H3141   1.402       .  S
C3145      C3146   1.398       .  A
C3145      C3150   1.415       .  A
C3146      C3147   1.392       .  A
C3146      H3155   1.083       .  S
C3147      C3148   1.417       .  A
C3147      S3151   1.810       .  S
C3148      C3149   1.411       .  A
C3149      C3150   1.417       .  A
C3149      H3156   1.083       .  S
C3150      S3152   1.802       .  S
S3151      H3154   1.407       .  S
S3152      H3153   1.403       .  S
C3157      C3158   1.408       .  A
C3157      C3162   1.424       .  A
C3158      C3159   1.411       .  A
C3158      H3167   1.083       .  S
C3159      C3160   1.420       .  A
C3159      S3163   1.799       .  S
C3160      C3161   1.400       .  A
C3161      C3162   1.383       .  A
C3161      H3168   1.084       .  S
C3162      S3164   1.806       .  S
S3163      H3166   1.407       .  S
S3164      H3165   1.408       .  S
C3169      C3170   1.400       .  A
C3169      C3174   1.421       .  A
C3170      C3171   1.408       .  A
C3170      H3179   1.084       .  S
C3171      C3172   1.426       .  A
C3171      S3175   1.802       .  S
C3172      C3173   1.402       .  A
C3173      C3174   1.404       .  A
C3173      H3180   1.084       .  S
C3174      S3176   1.796       .  S
S3175      H3178   1.408       .  S
S3176      H3177   1.405       .  S
C3181      C3182   1.400       .  A
C3181      C3186   1.425       .  A
C3182      C3183   1.389       .  A
C3182      H3191   1.084       .  S
C3183      C3184   1.409       .  A
C3183      S3187   1.790       .  S
C3184      C3185   1.388       .  A
C3185      C3186   1.383       .  A
C3185      H3192   1.084       .  S
C3186      S3188   1.802       .  S
S3187      H3190   1.405       .  S
S3188      H3189   1.373       .  S
C3193      C3194   1.402       .  A
C3193      C3198   1.417       .  A
C3194      C3195   1.401       .  A
C3194      H3203   1.084       .  S
C3195      C3196   1.418       .  A
C3195      S3199   1.801       .  S
C3196      C3197   1.398       .  A
C3197      C3198   1.391       .  A
C3197      H3204   1.084       .  S
C3198      S3200   1.794       .  S
S3199      H3202   1.408       .  S
S3200      H3201   1.407       .  S
C3205      C3206   1.400       .  A
C3205      C3210   1.421       .  A
C3206      C3207   1.402       .  A
C3206      H3215   1.084       .  S
C3207      C3208   1.426       .  A
C3207      S3211   1.795       .  S
C3208      C3209   1.410       .  A
C3209      C3210   1.417       .  A
C3209      H3216   1.082       .  S
C3210      S3212   1.806       .  S
S3211      H3214   1.405       .  S
S3212      H3213   1.406       .  S
C3217      C3218   1.389       .  A
C3217      C3222   1.414       .  A
C3218      C3219   1.386   1_655  A
C3218      H3227   1.084       .  S
C3219      C3220   1.424       .  A
C3219      S3223   1.813       .  S
C3220      C3221   1.397       .  A
C3221      C3222   1.392   1_455  A
C3221      H3228   1.084       .  S
C3222      S3224   1.801       .  S
S3223      H3226   1.406   1_455  S
S3224      H3225   1.408       .  S
C3229      C3230   1.415       .  A
C3229      C3234   1.412       .  A
C3230      C3231   1.404       .  A
C3230      H3239   1.083       .  S
C3231      C3232   1.412       .  A
C3231      S3235   1.806   1_655  S
C3232      C3233   1.400       .  A
C3233      C3234   1.389       .  A
C3233      H3240   1.083       .  S
C3234      S3236   1.794       .  S
S3235      H3238   1.400       .  S
S3236      H3237   1.407       .  S
C3241      C3242   1.398       .  A
C3241      C3246   1.407       .  A
C3242      C3243   1.398       .  A
C3242      H3251   1.083       .  S
C3243      C3244   1.418       .  A
C3243      S3247   1.803       .  S
C3244      C3245   1.406       .  A
C3245      C3246   1.410       .  A
C3245      H3252   1.083       .  S
C3246      S3248   1.792       .  S
S3247      H3250   1.402       .  S
S3248      H3249   1.406       .  S
C3253      C3254   1.397       .  A
C3253      C3258   1.421       .  A
C3254      C3255   1.403       .  A
C3254      H3263   1.084       .  S
C3255      C3256   1.420       .  A
C3255      S3259   1.790       .  S
C3256      C3257   1.404       .  A
C3257      C3258   1.413       .  A
C3257      H3264   1.084       .  S
C3258      S3260   1.800       .  S
S3259      H3262   1.407       .  S
S3260      H3261   1.405       .  S
C3265      C3266   1.398       .  A
C3265      C3270   1.404       .  A
C3266      C3267   1.403       .  A
C3266      H3275   1.084       .  S
C3267      C3268   1.421       .  A
C3267      S3271   1.798       .  S
C3268      C3269   1.395       .  A
C3269      C3270   1.389       .  A
C3269      H3276   1.084       .  S
C3270      S3272   1.773       .  S
S3271      H3274   1.407       .  S
S3272      H3273   1.401       .  S
C3277      C3278   1.411       .  A
C3277      C3282   1.422       .  A
C3278      C3279   1.420       .  A
C3278      H3287   1.083       .  S
C3279      C3280   1.418       .  A
C3279      S3283   1.802       .  S
C3280      C3281   1.390       .  A
C3281      C3282   1.381       .  A
C3281      H3288   1.086       .  S
C3282      S3284   1.794       .  S
S3283      H3286   1.406       .  S
S3284      H3285   1.406       .  S
C3289      C3290   1.399       .  A
C3289      C3294   1.414       .  A
C3290      C3291   1.407   1_565  A
C3290      H3299   1.084       .  S
C3291      C3292   1.427       .  A
C3291      S3295   1.801       .  S
C3292      C3293   1.409       .  A
C3293      C3294   1.407   1_545  A
C3293      H3300   1.083       .  S
C3294      S3296   1.803       .  S
S3295      H3298   1.408       .  S
S3296      H3297   1.406       .  S
C3301      C3302   1.399       .  A
C3301      C3306   1.411       .  A
C3302      C3303   1.403   1_556  A
C3302      H3311   1.083       .  S
C3303      C3304   1.418       .  A
C3303      S3307   1.804       .  S
C3304      C3305   1.397       .  A
C3305      C3306   1.399   1_554  A
C3305      H3312   1.081       .  S
C3306      S3308   1.791       .  S
S3307      H3310   1.407       .  S
S3308      H3309   1.399       .  S
C3313      C3314   1.399       .  A
C3313      C3318   1.414       .  A
C3314      C3315   1.405       .  A
C3314      H3323   1.084       .  S
C3315      C3316   1.423       .  A
C3315      S3319   1.800       .  S
C3316      C3317   1.405       .  A
C3317      C3318   1.411       .  A
C3317      H3324   1.083       .  S
C3318      S3320   1.802       .  S
S3319      H3322   1.405       .  S
S3320      H3321   1.407       .  S
C3325      C3326   1.407       .  A
C3325      C3330   1.406       .  A
C3326      C3327   1.402       .  A
C3326      H3335   1.084       .  S
C3327      C3328   1.406       .  A
C3327      S3331   1.799       .  S
C3328      C3329   1.408       .  A
C3329      C3330   1.396       .  A
C3329      H3336   1.081       .  S
C3330      S3332   1.805       .  S
S3331      H3334   1.405       .  S
S3332      H3333   1.403       .  S
C3337      C3338   1.402       .  A
C3337      C3342   1.411       .  A
C3338      C3339   1.398       .  A
C3338      H3347   1.079       .  S
C3339      C3340   1.414       .  A
C3339      S3343   1.801       .  S
C3340      C3341   1.411       .  A
C3341      C3342   1.405       .  A
C3341      H3348   1.083       .  S
C3342      S3344   1.803       .  S
S3343      H3346   1.407       .  S
S3344      H3345   1.406       .  S
C3349      C3350   1.395       .  A
C3349      C3354   1.411       .  A
C3350      C3351   1.392   1_556  A
C3350      H3359   1.079       .  S
C3351      C3352   1.413       .  A
C3351      S3355   1.806       .  S
C3352      C3353   1.409       .  A
C3353      C3354   1.407   1_554  A
C3353      H3360   1.084       .  S
C3354      S3356   1.801       .  S
S3355      H3358   1.404       .  S
S3356      H3357   1.405       .  S
C3361      C3362   1.406       .  A
C3361      C3366   1.414   1_565  A
C3362      C3363   1.412   1_565  A
C3362      H3371   1.084       .  S
C3363      C3364   1.417       .  A
C3363      S3367   1.796       .  S
C3364      C3365   1.407       .  A
C3365      C3366   1.405       .  A
C3365      H3372   1.084       .  S
C3366      S3368   1.805   1_545  S
S3367      H3370   1.406       .  S
S3368      H3369   1.406       .  S
C3373      C3374   1.398       .  A
C3373      C3378   1.412       .  A
C3374      C3375   1.396       .  A
C3374      H3383   1.080       .  S
C3375      C3376   1.409       .  A
C3375      S3379   1.796       .  S
C3376      C3377   1.405       .  A
C3377      C3378   1.403       .  A
C3377      H3384   1.084       .  S
C3378      S3380   1.804       .  S
S3379      H3382   1.406       .  S
S3380      H3381   1.406       .  S
C3385      C3386   1.404       .  A
C3385      C3390   1.413       .  A
C3386      C3387   1.377       .  A
C3386      H3395   1.077       .  S
C3387      C3388   1.407       .  A
C3387      S3391   1.807       .  S
C3388      C3389   1.406       .  A
C3389      C3390   1.405       .  A
C3389      H3396   1.084       .  S
C3390      S3392   1.800       .  S
S3391      H3394   1.407       .  S
S3392      H3393   1.408       .  S
C3397      C3398   1.418       .  A
C3397      C3402   1.414       .  A
C3398      C3399   1.403       .  A
C3398      H3407   1.084       .  S
C3399      C3400   1.405       .  A
C3399      S3403   1.803       .  S
C3400      C3401   1.411       .  A
C3401      C3402   1.411       .  A
C3401      H3408   1.084       .  S
C3402      S3404   1.798       .  S
S3403      H3406   1.406       .  S
S3404      H3405   1.407       .  S
C3409      C3410   1.408       .  A
C3409      C3414   1.410   1_565  A
C3410      C3411   1.380       .  A
C3410      H3419   1.081       .  S
C3411      C3412   1.397   1_565  A
C3411      S3415   1.801       .  S
C3412      C3413   1.403       .  A
C3413      C3414   1.393       .  A
C3413      H3420   1.085       .  S
C3414      S3416   1.800       .  S
S3415      H3418   1.405       .  S
S3416      H3417   1.406       .  S
C3421      C3422   1.389       .  A
C3421      C3426   1.419       .  A
C3422      C3423   1.389   1_556  A
C3422      H3431   1.083       .  S
C3423      C3424   1.427       .  A
C3423      S3427   1.804       .  S
C3424      C3425   1.399       .  A
C3425      C3426   1.400   1_554  A
C3425      H3432   1.084       .  S
C3426      S3428   1.800       .  S
S3427      H3430   1.407       .  S
S3428      H3429   1.403       .  S
C3433      C3434   1.400   1_545  A
C3433      C3438   1.409       .  A
C3434      C3435   1.389       .  A
C3434      H3443   1.083       .  S
C3435      C3436   1.412   1_556  A
C3435      S3439   1.804       .  S
C3436      C3437   1.409   1_565  A
C3437      C3438   1.395   1_554  A
C3437      H3444   1.084       .  S
C3438      S3440   1.801   1_556  S
S3439      H3442   1.408       .  S
S3440      H3441   1.400   1_554  S
C3445      C3446   1.406       .  A
C3445      C3450   1.418       .  A
C3446      C3447   1.399       .  A
C3446      H3455   1.084       .  S
C3447      C3448   1.408       .  A
C3447      S3451   1.801       .  S
C3448      C3449   1.397       .  A
C3449      C3450   1.395       .  A
C3449      H3456   1.077       .  S
C3450      S3452   1.798       .  S
S3451      H3454   1.406       .  S
S3452      H3453   1.403       .  S
C3457      C3458   1.402       .  A
C3457      C3462   1.392       .  A
C3458      C3459   1.402       .  A
C3458      H3467   1.085       .  S
C3459      C3460   1.422       .  A
C3459      S3463   1.800       .  S
C3460      C3461   1.409       .  A
C3461      C3462   1.385       .  A
C3461      H3468   1.069       .  S
C3462      S3464   1.795       .  S
S3463      H3466   1.388       .  S
S3464      H3465   1.399       .  S
C3469      C3470   1.415       .  A
C3469      C3474   1.416       .  A
C3470      C3471   1.417       .  A
C3470      H3479   1.084       .  S
C3471      C3472   1.421       .  A
C3471      S3475   1.799       .  S
C3472      C3473   1.419       .  A
C3473      C3474   1.416       .  A
C3473      H3480   1.083       .  S
C3474      S3476   1.799       .  S
S3475      H3478   1.407       .  S
S3476      H3477   1.407       .  S
C3481      C3482   1.410   1_556  A
C3481      C3486   1.411       .  A
C3482      C3483   1.402       .  A
C3482      H3491   1.081   1_554  S
C3483      C3484   1.408       .  A
C3483      S3487   1.803       .  S
C3484      C3485   1.410       .  A
C3485      C3486   1.403   1_554  A
C3485      H3492   1.083       .  S
C3486      S3488   1.800       .  S
S3487      H3490   1.407       .  S
S3488      H3489   1.407       .  S
C3493      C3494   1.401       .  A
C3493      C3498   1.411       .  A
C3494      C3495   1.397       .  A
C3494      H3503   1.082       .  S
C3495      C3496   1.411   1_556  A
C3495      S3499   1.802       .  S
C3496      C3497   1.395       .  A
C3497      C3498   1.395   1_554  A
C3497      H3504   1.083       .  S
C3498      S3500   1.795   1_556  S
S3499      H3502   1.404       .  S
S3500      H3501   1.405   1_554  S
C3505      C3506   1.403       .  A
C3505      C3510   1.422       .  A
C3506      C3507   1.409       .  A
C3506      H3515   1.083       .  S
C3507      C3508   1.416       .  A
C3507      S3511   1.797       .  S
C3508      C3509   1.398       .  A
C3509      C3510   1.401       .  A
C3509      H3516   1.084       .  S
C3510      S3512   1.799       .  S
S3511      H3514   1.404       .  S
S3512      H3513   1.405       .  S
C3517      C3518   1.391       .  A
C3517      C3522   1.408       .  A
C3518      C3519   1.386   1_565  A
C3518      H3527   1.085       .  S
C3519      C3520   1.422       .  A
C3519      S3523   1.803       .  S
C3520      C3521   1.402       .  A
C3521      C3522   1.396   1_545  A
C3521      H3528   1.080       .  S
C3522      S3524   1.804       .  S
S3523      H3526   1.407       .  S
S3524      H3525   1.404       .  S
C3529      C3530   1.398       .  A
C3529      C3534   1.418   1_556  A
C3530      C3531   1.401   1_556  A
C3530      H3539   1.083       .  S
C3531      C3532   1.416       .  A
C3531      S3535   1.805       .  S
C3532      C3533   1.392       .  A
C3533      C3534   1.391       .  A
C3533      H3540   1.079       .  S
C3534      S3536   1.807   1_554  S
S3535      H3538   1.407       .  S
S3536      H3537   1.408       .  S
C3541      C3542   1.413       .  A
C3541      C3546   1.415       .  A
C3542      C3543   1.418       .  A
C3542      H3551   1.079       .  S
C3543      C3544   1.411   1_556  A
C3543      S3547   1.801       .  S
C3544      C3545   1.398   1_554  A
C3545      C3546   1.392       .  A
C3545      H3552   1.077   1_556  S
C3546      S3548   1.792       .  S
S3547      H3550   1.406   1_556  S
S3548      H3549   1.408       .  S
C3553      C3554   1.398       .  A
C3553      C3558   1.419       .  A
C3554      C3555   1.389       .  A
C3554      H3563   1.079       .  S
C3555      C3556   1.414       .  A
C3555      S3559   1.796       .  S
C3556      C3557   1.406   1_565  A
C3557      C3558   1.410   1_545  A
C3557      H3564   1.080       .  S
C3558      S3560   1.809       .  S
S3559      H3562   1.408       .  S
S3560      H3561   1.407   1_565  S
C3565      C3566   1.400       .  A
C3565      C3570   1.409       .  A
C3566      C3567   1.398       .  A
C3566      H3575   1.084       .  S
C3567      C3568   1.407       .  A
C3567      S3571   1.793       .  S
C3568      C3569   1.400       .  A
C3569      C3570   1.397       .  A
C3569      H3576   1.082       .  S
C3570      S3572   1.803       .  S
S3571      H3574   1.407       .  S
S3572      H3573   1.404       .  S
C3577      C3578   1.402       .  A
C3577      C3582   1.407       .  A
C3578      C3579   1.400       .  A
C3578      H3587   1.083       .  S
C3579      C3580   1.416       .  A
C3579      S3583   1.802       .  S
C3580      C3581   1.410       .  A
C3581      C3582   1.399       .  A
C3581      H3588   1.083       .  S
C3582      S3584   1.803       .  S
S3583      H3586   1.407       .  S
S3584      H3585   1.405       .  S
C3589      C3590   1.403       .  A
C3589      C3594   1.423       .  A
C3590      C3591   1.406       .  A
C3590      H3599   1.080       .  S
C3591      C3592   1.423       .  A
C3591      S3595   1.810       .  S
C3592      C3593   1.405       .  A
C3593      C3594   1.413       .  A
C3593      H3600   1.083       .  S
C3594      S3596   1.802       .  S
S3595      H3598   1.406       .  S
S3596      H3597   1.408       .  S
C3601      C3602   1.411       .  A
C3601      C3606   1.420       .  A
C3602      C3603   1.404       .  A
C3602      H3611   1.083       .  S
C3603      C3604   1.406       .  A
C3603      S3607   1.798       .  S
C3604      C3605   1.401       .  A
C3605      C3606   1.399       .  A
C3605      H3612   1.084       .  S
C3606      S3608   1.804       .  S
S3607      H3610   1.406       .  S
S3608      H3609   1.408       .  S
C3613      C3614   1.411       .  A
C3613      C3618   1.418       .  A
C3614      C3615   1.409       .  A
C3614      H3623   1.082       .  S
C3615      C3616   1.422       .  A
C3615      S3619   1.812       .  S
C3616      C3617   1.412       .  A
C3617      C3618   1.411       .  A
C3617      H3624   1.083       .  S
C3618      S3620   1.800       .  S
S3619      H3622   1.407       .  S
S3620      H3621   1.408       .  S
C3625      C3626   1.407       .  A
C3625      C3630   1.422       .  A
C3626      C3627   1.413       .  A
C3626      H3635   1.084       .  S
C3627      C3628   1.426       .  A
C3627      S3631   1.800       .  S
C3628      C3629   1.405       .  A
C3629      C3630   1.399       .  A
C3629      H3636   1.084       .  S
C3630      S3632   1.803       .  S
S3631      H3634   1.396       .  S
S3632      H3633   1.408       .  S
C3637      C3638   1.398       .  A
C3637      C3642   1.418       .  A
C3638      C3639   1.400       .  A
C3638      H3647   1.084       .  S
C3639      C3640   1.427       .  A
C3639      S3643   1.802       .  S
C3640      C3641   1.400       .  A
C3641      C3642   1.400       .  A
C3641      H3648   1.081       .  S
C3642      S3644   1.797       .  S
S3643      H3646   1.387       .  S
S3644      H3645   1.407       .  S
C3649      C3650   1.404       .  A
C3649      C3654   1.409       .  A
C3650      C3651   1.408   1_565  A
C3650      H3659   1.083       .  S
C3651      C3652   1.417       .  A
C3651      S3655   1.801       .  S
C3652      C3653   1.405       .  A
C3653      C3654   1.391   1_545  A
C3653      H3660   1.084       .  S
C3654      S3656   1.793       .  S
S3655      H3658   1.408       .  S
S3656      H3657   1.406       .  S
C3661      C3662   1.406       .  A
C3661      C3666   1.414   1_565  A
C3662      C3663   1.396       .  A
C3662      H3671   1.084       .  S
C3663      C3664   1.407   1_565  A
C3663      S3667   1.797       .  S
C3664      C3665   1.403       .  A
C3665      C3666   1.404       .  A
C3665      H3672   1.081       .  S
C3666      S3668   1.795       .  S
S3667      H3670   1.404       .  S
S3668      H3669   1.403       .  S
C3673      C3674   1.393       .  A
C3673      C3678   1.409       .  A
C3674      C3675   1.380       .  A
C3674      H3683   1.085       .  S
C3675      C3676   1.409       .  A
C3675      S3679   1.795       .  S
C3676      C3677   1.407       .  A
C3677      C3678   1.410       .  A
C3677      H3684   1.083       .  S
C3678      S3680   1.803       .  S
S3679      H3682   1.404       .  S
S3680      H3681   1.407       .  S
C3685      C3686   1.407       .  A
C3685      C3690   1.415       .  A
C3686      C3687   1.399       .  A
C3686      H3695   1.084       .  S
C3687      C3688   1.423       .  A
C3687      S3691   1.803       .  S
C3688      C3689   1.412       .  A
C3689      C3690   1.415       .  A
C3689      H3696   1.083       .  S
C3690      S3692   1.797       .  S
S3691      H3694   1.408       .  S
S3692      H3693   1.407       .  S
