geometry optimzed in LAMMPS
_audit_creation_date              2020-11-30 
_audit_creation_method            'lammps2cif' 
_symmetry_space_group_name_H-M    'P1' 
_symmetry_Int_Tables_number       1 
_symmetry_cell_setting            triclinic 
loop_ 
_symmetry_equiv_pos_as_xyz 
  x,y,z 
_cell_length_a                    39.53638031 
_cell_length_b                    39.55922170970976 
_cell_length_c                    39.55603676776591 
_cell_angle_alpha                 90.07012735067988 
_cell_angle_beta                  89.95488563655178 
_cell_angle_gamma                 89.9896157901233 
loop_ 
_atom_site_label 
_atom_site_type_symbol 
_atom_site_fract_x 
_atom_site_fract_y 
_atom_site_fract_z 
_atom_site_charge 
C1          C  0.25995412  0.23306113  0.28588436     0.81900
N2          N  0.23560621  0.25727958  0.28577325    -0.76400
C3          C  0.23365346  0.27989677  0.26009779     0.84400
N4          N  0.25650670  0.27858233  0.23449393    -0.76300
C5          C  0.28121499  0.25473285  0.23445009     0.84400
N6          N  0.28260380  0.23181189  0.25999611    -0.78100
O7          O  0.96781277  0.46466185  0.27911201    -0.72700
O8          O  0.03540531  0.53411107  0.28321566    -0.72800
O9          O  0.96678525  0.53296570  0.28012318    -0.72800
O10         O  0.03602821  0.46533945  0.28234242    -0.72900
O11         O  0.03892349  0.46651336  0.22607669    -0.72800
O12         O  0.96936580  0.53356046  0.22387887    -0.72800
O13         O  0.03757487  0.53477385  0.22702753    -0.72800
O14         O  0.97077673  0.46540824  0.22293422    -0.72800
Ni15       Ni  0.00145499  0.49929387  0.28324825     1.25400
Ni16       Ni  0.00427201  0.50011740  0.22302494     1.25400
C17         C  0.95821250  0.45347316  0.25025147     0.89400
C18         C  0.04770019  0.54596735  0.25565370     0.89400
C19         C  0.95639879  0.54419101  0.25159124     0.89400
C20         C  0.04866731  0.45455225  0.25451357     0.89600
C21         C  0.77545975  0.72414599  0.24857694     0.81900
N22         N  0.77592452  0.74951499  0.27181650    -0.76400
C23         C  0.75127519  0.77350843  0.27246653     0.84400
N24         N  0.72583465  0.77171524  0.24951414    -0.76300
C25         C  0.72509812  0.74673602  0.22606407     0.84400
N26         N  0.74994768  0.72315283  0.22567188    -0.78100
O27         O  0.22159705  0.03537063  0.47006382    -0.72700
O28         O  0.22020745  0.96604053  0.53775345    -0.72800
O29         O  0.22179999  0.03405893  0.53856048    -0.72800
O30         O  0.21983025  0.96648998  0.46936251    -0.72900
O31         O  0.27626999  0.96632984  0.46816589    -0.72800
O32         O  0.27805104  0.03193608  0.53901860    -0.72800
O33         O  0.27653978  0.96391383  0.53647789    -0.72800
O34         O  0.27784474  0.03452099  0.47080915    -0.72800
Ni35       Ni  0.21880755  0.00053069  0.50384618     1.25400
Ni36       Ni  0.27914897  0.99910786  0.50354901     1.25400
C37         C  0.25009069  0.04691717  0.45969029     0.89400
C38         C  0.24821948  0.95377155  0.54843887     0.89400
C39         C  0.25022936  0.04373437  0.55068576     0.89400
C40         C  0.24779969  0.95535335  0.45739541     0.89600
O41         O  0.77960821  0.96556298  0.46421461    -0.72700
O42         O  0.77857801  0.03533191  0.53130812    -0.72800
O43         O  0.77759691  0.96691823  0.53280117    -0.72800
O44         O  0.78080020  0.03371343  0.46304901    -0.72900
O45         O  0.72449738  0.03462935  0.46136499    -0.72800
O46         O  0.72136488  0.96772818  0.53115909    -0.72800
O47         O  0.72234765  0.03600610  0.52949835    -0.72800
O48         O  0.72327831  0.96634390  0.46273898    -0.72800
Ni49       Ni  0.78115862  0.00030198  0.49793720     1.25400
Ni50       Ni  0.72087882  0.00116710  0.49614769     1.25400
C51         C  0.75157547  0.95472344  0.45211737     0.89400
C52         C  0.75021803  0.04743660  0.54131447     0.89400
C53         C  0.74897724  0.95630449  0.54367536     0.89400
C54         C  0.75319790  0.04527801  0.45071982     0.89600
C55         C  0.26803389  0.75475760  0.78152345     0.81900
N56         N  0.24433181  0.72987570  0.78080858    -0.76400
C57         C  0.22050988  0.72903285  0.75604658     0.84400
N58         N  0.22069837  0.75329769  0.73177827    -0.76300
C59         C  0.24425898  0.77824738  0.73205625     0.84400
N60         N  0.26770491  0.77868714  0.75701893    -0.78100
O61         O  0.03410542  0.46526564  0.71778540    -0.72700
O62         O  0.96414930  0.53230512  0.71509077    -0.72800
O63         O  0.03296383  0.53363077  0.71714747    -0.72800
O64         O  0.96547664  0.46378792  0.71613695    -0.72900
O65         O  0.96406155  0.46473127  0.77232355    -0.72800
O66         O  0.03109479  0.53410410  0.77332156    -0.72800
O67         O  0.96247436  0.53309180  0.77126459    -0.72800
O68         O  0.03250713  0.46588139  0.77399324    -0.72800
Ni69       Ni  0.99921340  0.49874638  0.71452213     1.25400
Ni70       Ni  0.99746814  0.49950530  0.77468522     1.25400
C71         C  0.04501891  0.45451785  0.74630462     0.89400
C72         C  0.95147751  0.54369672  0.74267833     0.89400
C73         C  0.04354329  0.54512599  0.74557057     0.89400
C74         C  0.95355026  0.45270490  0.74418412     0.89600
C75         C  0.76839692  0.27651910  0.74653561     0.81900
N76         N  0.74456970  0.27527664  0.77135378    -0.76400
C77         C  0.72109073  0.25010946  0.77153686     0.84400
N78         N  0.72131715  0.22645892  0.74667817    -0.76300
C79         C  0.74456453  0.22775765  0.72147534     0.84400
N80         N  0.76796407  0.25277299  0.72178823    -0.78100
O81         O  0.46633291  0.78043048  0.96703153    -0.72700
O82         O  0.53419071  0.77789656  0.03579022    -0.72800
O83         O  0.53488421  0.77892950  0.96728986    -0.72800
O84         O  0.46587138  0.77943041  0.03533963    -0.72900
O85         O  0.46533884  0.72309937  0.03509569    -0.72800
O86         O  0.53269278  0.72262760  0.96560828    -0.72800
O87         O  0.53354673  0.72163708  0.03420060    -0.72800
O88         O  0.46446951  0.72416501  0.96666294    -0.72800
Ni89       Ni  0.50040042  0.78118244  0.00136760     1.25400
Ni90       Ni  0.49900793  0.72087909  0.00034941     1.25400
C91         C  0.45392257  0.75273621  0.95570544     0.89400
C92         C  0.54495011  0.74933047  0.04654458     0.89400
C93         C  0.54480048  0.75067294  0.95490054     0.89400
C94         C  0.45442292  0.75133255  0.04664787     0.89600
O95         O  0.53608684  0.27299705  0.96838674    -0.72700
O96         O  0.46552764  0.27555598  0.03491876    -0.72800
O97         O  0.53392071  0.27323462  0.03678834    -0.72800
O98         O  0.46793056  0.27556234  0.96658777    -0.72900
O99         O  0.46463779  0.21943937  0.96725988    -0.72800
O100        O  0.53346738  0.21690928  0.03548272    -0.72800
O101        O  0.46508611  0.21917688  0.03611531    -0.72800
O102        O  0.53278362  0.21674940  0.96685907    -0.72800
Ni103      Ni  0.50093073  0.27632797  0.00170026     1.25400
Ni104      Ni  0.49888559  0.21603740  0.00146916     1.25400
C105        C  0.54560480  0.24448634  0.95621531     0.89400
C106        C  0.45407346  0.24770464  0.04681406     0.89400
C107        C  0.54485344  0.24476243  0.04754996     0.89400
C108        C  0.45546141  0.24802266  0.95505845     0.89600
C109        C  0.74122735  0.76996206  0.71783704     0.81900
N110        N  0.71750800  0.76966633  0.74263816    -0.76400
C111        C  0.71622652  0.74435203  0.76574852     0.84400
N112        N  0.73939885  0.71893335  0.76377062    -0.76300
C113        C  0.76342387  0.71862432  0.73907698     0.84400
N114        N  0.76403727  0.74432927  0.71632436    -0.78100
C115        C  0.78196763  0.27049358  0.24162704     0.81900
N116        N  0.75612700  0.27087721  0.21903938    -0.76400
C117        C  0.73121292  0.24731406  0.22054555     0.84400
N118        N  0.73237089  0.22338552  0.24504710    -0.76300
C119        C  0.75796574  0.22256627  0.26786580     0.84400
N120        N  0.78270873  0.24627785  0.26592513    -0.78100
C121        C  0.25165368  0.22662897  0.72720204     0.81900
N122        N  0.27773130  0.22942044  0.74925089    -0.76400
C123        C  0.27943092  0.25559577  0.77132115     0.84400
N124        N  0.25454946  0.27927770  0.77119344    -0.76300
C125        C  0.22817191  0.27686574  0.74933049     0.84400
N126        N  0.22684586  0.25042569  0.72739935    -0.78100
C127        C  0.27481451  0.75245868  0.22760295     0.81900
N128        N  0.25036627  0.72828416  0.22827231    -0.76400
C129        C  0.22527537  0.72926160  0.25177341     0.84400
N130        N  0.22474551  0.75472698  0.27473931    -0.76300
C131        C  0.24909546  0.77883484  0.27458837     0.84400
N132        N  0.27408262  0.77755206  0.25107790    -0.78100
C133        C  0.39246347  0.22157173  0.88733156     0.14400
C134        C  0.38383008  0.25290691  0.87314290     0.01300
C135        C  0.39887707  0.28244372  0.88561213     0.16300
C136        C  0.42194422  0.28088091  0.91222580     0.25700
C137        C  0.43057989  0.24952403  0.92696140    -0.40600
C138        C  0.41560011  0.21982204  0.91400755     0.32700
C139        C  0.35806659  0.25504365  0.84625821     0.01400
F140        F  0.39133299  0.31292716  0.87177293    -0.12900
F141        F  0.42298013  0.18903007  0.92721207    -0.13500
C142        C  0.32803182  0.27307608  0.85197923     0.16300
C143        C  0.30292856  0.27427334  0.82722291     0.25700
C144        C  0.30732449  0.25716261  0.79626728    -0.40600
C145        C  0.33806423  0.24002249  0.79020608     0.32700
C146        C  0.36314999  0.23894301  0.81505599     0.14400
F147        F  0.32253185  0.28861457  0.88211562    -0.12900
F148        F  0.34405343  0.22446247  0.76016620    -0.13500
F149        F  0.27382052  0.29108824  0.83425132    -0.15700
F150        F  0.39252336  0.22232540  0.80861390    -0.14300
F151        F  0.37781706  0.19270408  0.87586884    -0.14300
F152        F  0.43576588  0.31026741  0.92335962    -0.15700
C153        C  0.62039901  0.21806502  0.10002656     0.14400
C154        C  0.62291114  0.24508207  0.12284754     0.01300
C155        C  0.59929334  0.27143959  0.12164085     0.16300
C156        C  0.57361044  0.27113581  0.09741419     0.25700
C157        C  0.57115676  0.24429225  0.07407082    -0.40600
C158        C  0.59463864  0.21756829  0.07583072     0.32700
C159        C  0.65039255  0.24594616  0.14784016     0.01400
F160        F  0.60121741  0.29748576  0.14394929    -0.12900
F161        F  0.59337450  0.19152693  0.05347761    -0.13500
C162        C  0.68081188  0.26244188  0.14026485     0.16300
C163        C  0.70702522  0.26325103  0.16393981     0.25700
C164        C  0.70315033  0.24743408  0.19566845    -0.40600
C165        C  0.67222496  0.23120884  0.20315067     0.32700
C166        C  0.64614682  0.23048233  0.17936033     0.14400
F167        F  0.68515721  0.27754443  0.10976130    -0.12900
F168        F  0.66684180  0.21649931  0.23367621    -0.13500
F169        F  0.73638595  0.27885813  0.15537772    -0.15700
F170        F  0.61661247  0.21476331  0.18709214    -0.14300
F171        F  0.64320706  0.19241960  0.10096282    -0.14300
F172        F  0.55087724  0.29687104  0.09713961    -0.15700
C173        C  0.59115858  0.72617798  0.87486675     0.14400
C174        C  0.61784273  0.74952033  0.87453648     0.01300
C175        C  0.62049668  0.77347168  0.90062840     0.16300
C176        C  0.59675343  0.77392515  0.92691686     0.25700
C177        C  0.57011117  0.75032762  0.92743736    -0.40600
C178        C  0.56753006  0.72647028  0.90114544     0.32700
C179        C  0.64305609  0.74845693  0.84703262     0.01400
F180        F  0.64641928  0.79598019  0.90089839    -0.12900
F181        F  0.54155974  0.70402442  0.90037173    -0.13500
C182        C  0.64304465  0.77324263  0.82181672     0.16300
C183        C  0.66625875  0.77164025  0.79516352     0.25700
C184        C  0.69050670  0.74530929  0.79347877    -0.40600
C185        C  0.69009294  0.72038637  0.81905791     0.32700
C186        C  0.66652374  0.72197059  0.84540814     0.14400
F187        F  0.62007392  0.79876373  0.82271513    -0.12900
F188        F  0.71245680  0.69438109  0.81891669    -0.13500
F189        F  0.66454235  0.79589525  0.77100376    -0.15700
F190        F  0.66676871  0.69771810  0.86966822    -0.14300
F191        F  0.58776298  0.70341604  0.84937588    -0.14300
F192        F  0.60035595  0.79674518  0.95233385    -0.15700
C193        C  0.38077317  0.77852811  0.10176854     0.14400
C194        C  0.37881073  0.75159052  0.12468928     0.01300
C195        C  0.40169807  0.72465254  0.12209634     0.16300
C196        C  0.42630146  0.72451618  0.09669358     0.25700
C197        C  0.42837393  0.75145395  0.07350192    -0.40600
C198        C  0.40537118  0.77851954  0.07634379     0.32700
C199        C  0.35258919  0.75141703  0.15115126     0.01400
F200        F  0.40035612  0.69864727  0.14442764    -0.12900
F201        F  0.40608987  0.80454866  0.05400688    -0.13500
C202        C  0.32298103  0.73251062  0.14667469     0.16300
C203        C  0.29778652  0.73261003  0.17150268     0.25700
C204        C  0.30189306  0.75164393  0.20145854    -0.40600
C205        C  0.33205289  0.77031154  0.20584617     0.32700
C206        C  0.35705779  0.77022124  0.18082625     0.14400
F207        F  0.31830329  0.71431857  0.11792341    -0.12900
F208        F  0.33774800  0.78835282  0.23449797    -0.13500
F209        F  0.26911662  0.71464735  0.16569004    -0.15700
F210        F  0.38583190  0.78833705  0.18562707    -0.14300
F211        F  0.35852627  0.80460552  0.10380040    -0.14300
F212        F  0.44857588  0.69841768  0.09531810    -0.15700
C213        C  0.62231335  0.26685531  0.90358019     0.14400
C214        C  0.61979636  0.24375098  0.87664960     0.01300
C215        C  0.59315352  0.22017100  0.87652805     0.16300
C216        C  0.56936138  0.21993140  0.90278356     0.25700
C217        C  0.57148476  0.24365588  0.92926559    -0.40600
C218        C  0.59820886  0.26706183  0.92941662     0.32700
C219        C  0.64488962  0.24478320  0.84874179     0.01400
F220        F  0.58956292  0.19804878  0.85049722    -0.12900
F221        F  0.60144152  0.28972840  0.95501019    -0.13500
C222        C  0.66371468  0.21586842  0.84002655     0.16300
C223        C  0.68846959  0.21757405  0.81476558     0.25700
C224        C  0.69523600  0.24834987  0.79831497    -0.40600
C225        C  0.67630398  0.27713009  0.80680712     0.32700
C226        C  0.65101637  0.27525223  0.83144285     0.14400
F227        F  0.65881303  0.18622986  0.85660723    -0.12900
F228        F  0.68159547  0.30683089  0.79047682    -0.13500
F229        F  0.70658518  0.18940796  0.80710756    -0.15700
F230        F  0.63210398  0.30313137  0.83810117    -0.14300
F231        F  0.64849100  0.28901828  0.90508951    -0.14300
F232        F  0.54351198  0.19735232  0.90162112    -0.15700
C233        C  0.18369099  0.36151098  0.75681032     0.14400
C234        C  0.15020222  0.35271320  0.74923363     0.01300
C235        C  0.14218585  0.31895216  0.74192313     0.16300
C236        C  0.16749703  0.29420181  0.74187220     0.25700
C237        C  0.20123341  0.30289862  0.74940439    -0.40600
C238        C  0.20901517  0.33682094  0.75705055     0.32700
C239        C  0.12363942  0.37888612  0.74862397     0.01400
F240        F  0.10978543  0.31002104  0.73489065    -0.12900
F241        F  0.24130208  0.34631053  0.76386776    -0.13500
C242        C  0.11679418  0.39650161  0.71870100     0.16300
C243        C  0.09142735  0.42115957  0.71790097     0.25700
C244        C  0.07237156  0.42865395  0.74720604    -0.40600
C245        C  0.07977776  0.41101499  0.77732833     0.32700
C246        C  0.10515718  0.38635010  0.77793023     0.14400
F247        F  0.13479721  0.38978593  0.69022187    -0.12900
F248        F  0.06222553  0.41718741  0.80619276    -0.13500
F249        F  0.08593708  0.43791084  0.68847279    -0.15700
F250        F  0.11168379  0.36960691  0.80714966    -0.14300
F251        F  0.19185135  0.39412232  0.76374885    -0.14300
F252        F  0.15883069  0.26164583  0.73525943    -0.15700
C253        C  0.84396983  0.67022336  0.71672680     0.14400
C254        C  0.84184726  0.64192350  0.73803555     0.01300
C255        C  0.81307447  0.63808309  0.75857803     0.16300
C256        C  0.78737475  0.66248668  0.75854412     0.25700
C257        C  0.78975083  0.69144603  0.73780712    -0.40600
C258        C  0.81825447  0.69453688  0.71639913     0.32700
C259        C  0.86984053  0.61674560  0.73918112     0.01400
F260        F  0.80965684  0.61039867  0.77855132    -0.12900
F261        F  0.82195236  0.72146585  0.69549491    -0.13500
C262        C  0.88553646  0.60867499  0.77001774     0.16300
C263        C  0.91192161  0.58506804  0.77122056     0.25700
C264        C  0.92359532  0.56915260  0.74144704    -0.40600
C265        C  0.90794155  0.57760504  0.71049148     0.32700
C266        C  0.88131720  0.60094650  0.70945962     0.14400
F267        F  0.87576212  0.62422965  0.79904694    -0.12900
F268        F  0.91796045  0.56302190  0.68105251    -0.13500
F269        F  0.92617281  0.57817162  0.80165497    -0.15700
F270        F  0.86627600  0.60763461  0.67934846    -0.14300
F271        F  0.87158351  0.67497689  0.69685798    -0.14300
F272        F  0.76012746  0.65740847  0.77878478    -0.15700
C273        C  0.81668573  0.35815615  0.76307685     0.14400
C274        C  0.84711746  0.35197940  0.74573848     0.01300
C275        C  0.85158508  0.32109452  0.72893333     0.16300
C276        C  0.82607945  0.29672481  0.72926274     0.25700
C277        C  0.79536086  0.30269471  0.74653327    -0.40600
C278        C  0.79098771  0.33376821  0.76347725     0.32700
C279        C  0.87443040  0.37754507  0.74526235     0.01400
F280        F  0.88109603  0.31420746  0.71273147    -0.12900
F281        F  0.76161481  0.34097645  0.77976480    -0.13500
C282        C  0.88975774  0.38788686  0.77550112     0.16300
C283        C  0.91577983  0.41179308  0.77512876     0.25700
C284        C  0.92697969  0.42605116  0.74434273    -0.40600
C285        C  0.91190259  0.41498255  0.71395583     0.32700
C286        C  0.88587906  0.39103053  0.71448884     0.14400
F287        F  0.87991735  0.37429923  0.80544777    -0.12900
F288        F  0.92196431  0.42747810  0.68362227    -0.13500
F289        F  0.93008207  0.42065247  0.80505182    -0.15700
F290        F  0.87141933  0.38135087  0.68489199    -0.14300
F291        F  0.81163425  0.38811589  0.77909403    -0.14300
F292        F  0.83199831  0.26693610  0.71322807    -0.15700
C293        C  0.34897041  0.77628697  0.82868294     0.14400
C294        C  0.34620299  0.75580415  0.85737727     0.01300
C295        C  0.31742578  0.73557451  0.86177091     0.16300
C296        C  0.29174662  0.73549068  0.83747924     0.25700
C297        C  0.29462769  0.75550452  0.80808733    -0.40600
C298        C  0.32359199  0.77611821  0.80418872     0.32700
C299        C  0.37375962  0.75510514  0.88240818     0.01400
F300        F  0.31410613  0.71611351  0.88983132    -0.12900
F301        F  0.32803278  0.79564391  0.77634027    -0.13500
C302        C  0.38063894  0.78368314  0.90222963     0.16300
C303        C  0.40686121  0.78305898  0.92587260     0.25700
C304        C  0.42676433  0.75375859  0.92996821    -0.40600
C305        C  0.41998130  0.72527955  0.90959393     0.32700
C306        C  0.39364231  0.72599473  0.88607824     0.14400
F307        F  0.36152750  0.81202389  0.89904169    -0.12900
F308        F  0.43916946  0.69690520  0.91190911    -0.13500
F309        F  0.41215436  0.81089996  0.94526756    -0.15700
F310        F  0.38786240  0.69845112  0.86638937    -0.14300
F311        F  0.37678183  0.79587962  0.82397856    -0.14300
F312        F  0.26401985  0.71603765  0.84305994    -0.15700
C313        C  0.10854877  0.61068284  0.71816202     0.14400
C314        C  0.12148088  0.62148220  0.74942578     0.01300
C315        C  0.10934039  0.60665453  0.77924229     0.16300
C316        C  0.08430518  0.58178314  0.77796666     0.25700
C317        C  0.07062281  0.57124549  0.74668448    -0.40600
C318        C  0.08337427  0.58585059  0.71673332     0.32700
C319        C  0.14696968  0.64885114  0.75107358     0.01400
F320        F  0.12120359  0.61685754  0.80980746    -0.12900
F321        F  0.07150306  0.57634808  0.68596063    -0.13500
C322        C  0.13953792  0.68088617  0.73777279     0.16300
C323        C  0.16330133  0.70696993  0.73957799     0.25700
C324        C  0.19501061  0.70156490  0.75492871    -0.40600
C325        C  0.20224256  0.66946806  0.76857544     0.32700
C326        C  0.17846855  0.64335848  0.76654345     0.14400
F327        F  0.10886394  0.68713145  0.72366981    -0.12900
F328        F  0.23267265  0.66295391  0.78306326    -0.13500
F329        F  0.15484799  0.73775006  0.72699141    -0.15700
F330        F  0.18646416  0.61245216  0.77912526    -0.14300
F331        F  0.12055606  0.62404849  0.68891350    -0.14300
F332        F  0.07357108  0.56815398  0.80757777    -0.15700
C333        C  0.78491440  0.09976911  0.37851249     0.14400
C334        C  0.75734062  0.12147410  0.37345497     0.01300
C335        C  0.72839964  0.11812323  0.39371634     0.16300
C336        C  0.72694848  0.09330237  0.41875730     0.25700
C337        C  0.75454807  0.07138204  0.42398089    -0.40600
C338        C  0.78356639  0.07487565  0.40352337     0.32700
C339        C  0.75822483  0.14698278  0.34632413     0.01400
F340        F  0.70165194  0.13922638  0.38943325    -0.12900
F341        F  0.81032537  0.05364983  0.40704544    -0.13500
C342        C  0.73598127  0.14425233  0.31892692     0.16300
C343        C  0.73612566  0.16849361  0.29334300     0.25700
C344        C  0.75852736  0.19629154  0.29475369    -0.40600
C345        C  0.78106740  0.19870094  0.32238050     0.32700
C346        C  0.78092076  0.17416941  0.34782129     0.14400
F347        F  0.71427873  0.11773196  0.31677875    -0.12900
F348        F  0.80289441  0.22503221  0.32533334    -0.13500
F349        F  0.71440827  0.16432467  0.26710659    -0.15700
F350        F  0.80244122  0.17734317  0.37437808    -0.14300
F351        F  0.81281474  0.10217080  0.35861651    -0.14300
F352        F  0.69875330  0.09122085  0.43826560    -0.15700
C353        C  0.71633079  0.88916178  0.60422261     0.14400
C354        C  0.74598054  0.87986670  0.62127172     0.01300
C355        C  0.77643289  0.89633590  0.61360531     0.16300
C356        C  0.77740972  0.92144495  0.58876660     0.25700
C357        C  0.74782272  0.93043548  0.57091141    -0.40600
C358        C  0.71717073  0.91412201  0.57924588     0.32700
C359        C  0.74528614  0.85219103  0.64629298     0.01400
F360        F  0.80524524  0.88817697  0.63039220    -0.12900
F361        F  0.68800372  0.92166701  0.56280882    -0.13500
C362        C  0.76248009  0.82188864  0.63970089     0.16300
C363        C  0.76109139  0.79516128  0.66274690     0.25700
C364        C  0.74264336  0.79834893  0.69316797    -0.40600
C365        C  0.72569248  0.82914031  0.69972936     0.32700
C366        C  0.72690356  0.85565207  0.67640849     0.14400
F367        F  0.78001646  0.81791391  0.61043299    -0.12900
F368        F  0.70835549  0.83406586  0.72894253    -0.13500
F369        F  0.77727048  0.76596770  0.65473044    -0.15700
F370        F  0.71046917  0.88498356  0.68343621    -0.14300
F371        F  0.68665893  0.87331990  0.61114185    -0.14300
F372        F  0.80737882  0.93695981  0.58243185    -0.15700
C373        C  0.77816446  0.11073228  0.60793766     0.14400
C374        C  0.74747461  0.12669732  0.61585617     0.01300
C375        C  0.71789742  0.11716031  0.59884041     0.16300
C376        C  0.71878707  0.09158536  0.57454522     0.25700
C377        C  0.74945737  0.07500255  0.56674999    -0.40600
C378        C  0.77922936  0.08513481  0.58360607     0.32700
C379        C  0.74616778  0.15284023  0.64240720     0.01400
F380        F  0.68811523  0.13291611  0.60556965    -0.12900
F381        F  0.80937498  0.07002293  0.57707795    -0.13500
C382        C  0.76504884  0.18262322  0.63910974     0.16300
C383        C  0.76436339  0.20706590  0.66457367     0.25700
C384        C  0.74471806  0.20209978  0.69402646    -0.40600
C385        C  0.72547442  0.17218452  0.69691285     0.32700
C386        C  0.72624190  0.14786940  0.67132026     0.14400
F387        F  0.78384669  0.18823863  0.61091631    -0.12900
F388        F  0.70633675  0.16591287  0.72471654    -0.13500
F389        F  0.78271940  0.23569884  0.65997041    -0.15700
F390        F  0.70806582  0.11899246  0.67511117    -0.14300
F391        F  0.80701368  0.11940768  0.62441783    -0.14300
F392        F  0.68951771  0.08334966  0.55860331    -0.15700
C393        C  0.22729602  0.87605181  0.40826426     0.14400
C394        C  0.24784818  0.88013591  0.37950006     0.01300
C395        C  0.26816422  0.90913831  0.37658792     0.16300
C396        C  0.26822767  0.93348673  0.40213937     0.25700
C397        C  0.24742058  0.92961173  0.43063092    -0.40600
C398        C  0.22683247  0.90081914  0.43352237     0.32700
C399        C  0.24816039  0.85427713  0.35247409     0.01400
F400        F  0.28747754  0.91418953  0.34864944    -0.12900
F401        F  0.20722607  0.89613220  0.46133270    -0.13500
C402        C  0.21795571  0.84487207  0.33629390     0.16300
C403        C  0.21829295  0.82048036  0.31073026     0.25700
C404        C  0.24891798  0.80547841  0.30060719    -0.40600
C405        C  0.27919536  0.81525139  0.31643420     0.32700
C406        C  0.27876910  0.83921665  0.34238780     0.14400
F407        F  0.18820857  0.85979025  0.34482708    -0.12900
F408        F  0.30904299  0.80067060  0.30767852    -0.13500
F409        F  0.18878233  0.81210549  0.29530726    -0.15700
F410        F  0.30816668  0.84713724  0.35826240    -0.14300
F411        F  0.20830904  0.84772270  0.41223291    -0.14300
F412        F  0.28795821  0.96136015  0.39865271    -0.15700
C413        C  0.23501924  0.17534224  0.64803233     0.14400
C414        C  0.25144309  0.14489226  0.65566866     0.01300
C415        C  0.26747643  0.14096695  0.68699103     0.16300
C416        C  0.26713180  0.16734243  0.71052536     0.25700
C417        C  0.25081384  0.19815817  0.70291865    -0.40600
C418        C  0.23464319  0.20178130  0.67142082     0.32700
C419        C  0.25177661  0.11740097  0.63060767     0.01400
F420        F  0.28312784  0.11144756  0.69486878    -0.12900
F421        F  0.21942835  0.23126733  0.66268929    -0.13500
C422        C  0.28168321  0.10922785  0.61341098     0.16300
C423        C  0.28132760  0.08513867  0.58756231     0.25700
C424        C  0.25092415  0.06871212  0.57861427    -0.40600
C425        C  0.22116761  0.07642385  0.59677771     0.32700
C426        C  0.22167124  0.10061039  0.62248147     0.14400
F427        F  0.31102230  0.12539540  0.62096020    -0.12900
F428        F  0.19151100  0.06055031  0.58989095    -0.13500
F429        F  0.31061228  0.07865716  0.57080578    -0.15700
F430        F  0.19269616  0.10777839  0.63950020    -0.14300
F431        F  0.22001319  0.17968241  0.61747525    -0.14300
F432        F  0.28230239  0.16244525  0.74091985    -0.15700
C433        C  0.22226134  0.90355854  0.62554943     0.14400
C434        C  0.24804201  0.87931412  0.62704930     0.01300
C435        C  0.27401065  0.87954708  0.60293319     0.16300
C436        C  0.27406893  0.90373102  0.57722604     0.25700
C437        C  0.24798565  0.92792147  0.57529321    -0.40600
C438        C  0.22213386  0.92769186  0.59981410     0.32700
C439        C  0.24747334  0.85343754  0.65361505     0.01400
F440        F  0.29913306  0.85617552  0.60420918    -0.12900
F441        F  0.19726335  0.95136689  0.59946710    -0.13500
C442        C  0.22872241  0.82378814  0.64896679     0.16300
C443        C  0.22749349  0.79934762  0.67439292     0.25700
C444        C  0.24503744  0.80432160  0.70508142    -0.40600
C445        C  0.26386326  0.83439430  0.70944273     0.32700
C446        C  0.26509592  0.85861928  0.68383079     0.14400
F447        F  0.21170557  0.81850881  0.61962690    -0.12900
F448        F  0.28070814  0.84083677  0.73864066    -0.13500
F449        F  0.20955633  0.77067157  0.66856115    -0.15700
F450        F  0.28328324  0.88734933  0.68859998    -0.14300
F451        F  0.19736937  0.90391813  0.64922092    -0.14300
F452        F  0.29923230  0.90302212  0.55385146    -0.15700
C453        C  0.68005391  0.73839228  0.14239613     0.14400
C454        C  0.64647900  0.74565635  0.15155504     0.01300
C455        C  0.63874722  0.75263926  0.18554613     0.16300
C456        C  0.66433953  0.75291334  0.20990522     0.25700
C457        C  0.69792833  0.74570177  0.20067966    -0.40600
C458        C  0.70551779  0.73808857  0.16680463     0.32700
C459        C  0.61974585  0.74629067  0.12546504     0.01400
F460        F  0.60633863  0.75870499  0.19519902    -0.12900
F461        F  0.73782221  0.73159909  0.15707708    -0.13500
C462        C  0.61402526  0.71781166  0.10504869     0.16300
C463        C  0.58982673  0.71878176  0.07937844     0.25700
C464        C  0.57066939  0.74829188  0.07374223    -0.40600
C465        C  0.57616878  0.77667937  0.09463589     0.32700
C466        C  0.60053347  0.77566456  0.12018254     0.14400
F467        F  0.63183038  0.68890063  0.11011358    -0.12900
F468        F  0.55778014  0.80539896  0.09068536    -0.13500
F469        F  0.58567192  0.69094093  0.05971023    -0.15700
F470        F  0.60587352  0.80367626  0.13933248    -0.14300
F471        F  0.68833744  0.73251523  0.10958782    -0.14300
F472        F  0.65618198  0.75941234  0.24263102    -0.15700
C473        C  0.72696698  0.85232234  0.32230553     0.14400
C474        C  0.75236107  0.85338912  0.34699786     0.01300
C475        C  0.77783376  0.82873367  0.34681268     0.16300
C476        C  0.77776739  0.80305399  0.32255727     0.25700
C477        C  0.75196970  0.80134734  0.29790651    -0.40600
C478        C  0.72667126  0.82664907  0.29803076     0.32700
C479        C  0.75192926  0.87977044  0.37345628     0.01400
F480        F  0.80244143  0.82904216  0.37074896    -0.12900
F481        F  0.70144856  0.82684270  0.27476059    -0.13500
C482        C  0.72407449  0.88268964  0.39531142     0.16300
C483        C  0.72391995  0.90704586  0.42089615     0.25700
C484        C  0.75180502  0.92877205  0.42522898    -0.40600
C485        C  0.77961200  0.92590342  0.40313568     0.32700
C486        C  0.77959124  0.90167232  0.37741503     0.14400
F487        F  0.69730926  0.86138140  0.39234785    -0.12900
F488        F  0.80646520  0.94713639  0.40579080    -0.13500
F489        F  0.69678857  0.90877800  0.44190214    -0.15700
F490        F  0.80636486  0.89994535  0.35595644    -0.14300
F491        F  0.70250696  0.87642077  0.32152230    -0.14300
F492        F  0.80296100  0.77982295  0.32368431    -0.15700
C493        C  0.18289652  0.64358280  0.24510492     0.14400
C494        C  0.15019187  0.65070191  0.25710821     0.01300
C495        C  0.14227906  0.68374033  0.26745578     0.16300
C496        C  0.16662052  0.70931613  0.26564184     0.25700
C497        C  0.19930465  0.70234126  0.25316876    -0.40600
C498        C  0.20715389  0.66916526  0.24291105     0.32700
C499        C  0.12397870  0.62397851  0.25722825     0.01400
F500        F  0.11063928  0.69147528  0.27838592    -0.12900
F501        F  0.23857252  0.66118741  0.23153694    -0.13500
C502        C  0.10703828  0.61504741  0.28715624     0.16300
C503        C  0.08224258  0.58974984  0.28684896     0.25700
C504        C  0.07398462  0.57284896  0.25650347    -0.40600
C505        C  0.09115137  0.58206800  0.22658860     0.32700
C506        C  0.11570864  0.60736848  0.22700749     0.14400
F507        F  0.11485311  0.63051504  0.31680498    -0.12900
F508        F  0.08446005  0.56656676  0.19669080    -0.13500
F509        F  0.06624269  0.58210624  0.31624454    -0.15700
F510        F  0.13113516  0.61606730  0.19758703    -0.14300
F511        F  0.19145995  0.61164533  0.23582612    -0.14300
F512        F  0.15782125  0.74111165  0.27518121    -0.15700
C513        C  0.86587464  0.31518724  0.25342772     0.14400
C514        C  0.85810763  0.34776423  0.24198992     0.01300
C515        C  0.82590609  0.35467588  0.22897654     0.16300
C516        C  0.80126284  0.32938522  0.22816112     0.25700
C517        C  0.80857119  0.29675725  0.24048382    -0.40600
C518        C  0.84133903  0.28980373  0.25266994     0.32700
C519        C  0.88353552  0.37474297  0.24410370     0.01400
F520        F  0.81817371  0.38617167  0.21776180    -0.12900
F521        F  0.84982901  0.25835496  0.26345091    -0.13500
C522        C  0.90237609  0.38360609  0.21550979     0.16300
C523        C  0.92667286  0.40912344  0.21748050     0.25700
C524        C  0.93240216  0.42636265  0.24824424    -0.40600
C525        C  0.91315726  0.41730542  0.27689865     0.32700
C526        C  0.88897423  0.39163940  0.27476514     0.14400
F527        F  0.89740921  0.36725250  0.18572373    -0.12900
F528        F  0.91729518  0.43347932  0.30690737    -0.13500
F529        F  0.94482604  0.41650607  0.18928870    -0.15700
F530        F  0.87056708  0.38341624  0.30256224    -0.14300
F531        F  0.89728368  0.30804157  0.26531014    -0.14300
F532        F  0.76996650  0.33725336  0.21645263    -0.15700
C533        C  0.88059024  0.59728067  0.27679128     0.14400
C534        C  0.87770520  0.61914959  0.24901634     0.01300
C535        C  0.90019126  0.61579413  0.22174897     0.16300
C536        C  0.92557370  0.59124577  0.22242091     0.25700
C537        C  0.92906071  0.56971779  0.25056652    -0.40600
C538        C  0.90607363  0.57281840  0.27764064     0.32700
C539        C  0.85167706  0.64593077  0.24878514     0.01400
F540        F  0.89811580  0.63694249  0.19481399    -0.12900
F541        F  0.90775989  0.55176612  0.30467711    -0.13500
C542        C  0.85151571  0.67083497  0.27402806     0.16300
C543        C  0.82706890  0.69632213  0.27392621     0.25700
C544        C  0.80212483  0.69749314  0.24839131    -0.40600
C545        C  0.80272452  0.67240738  0.22287124     0.32700
C546        C  0.82719198  0.64693061  0.22320151     0.14400
F547        F  0.87545162  0.67073604  0.29863759    -0.12900
F548        F  0.77972164  0.67223484  0.19740730    -0.13500
F549        F  0.82800507  0.71962243  0.29907839    -0.15700
F550        F  0.82664546  0.62282250  0.19873333    -0.14300
F551        F  0.85839427  0.59937751  0.30293203    -0.14300
F552        F  0.94727230  0.58923833  0.19586992    -0.15700
C553        C  0.37514505  0.27008348  0.09630230     0.14400
C554        C  0.37887556  0.24986870  0.12535090     0.01300
C555        C  0.40743241  0.22879783  0.12810108     0.16300
C556        C  0.43161204  0.22780411  0.10228151     0.25700
C557        C  0.42810526  0.24839845  0.07358944    -0.40600
C558        C  0.39978834  0.26967341  0.07085198     0.32700
C559        C  0.35339084  0.25112306  0.15299632     0.01400
F560        F  0.41241717  0.20983631  0.15625040    -0.12900
F561        F  0.39553334  0.28936400  0.04308234    -0.13500
C562        C  0.33823042  0.22125896  0.16501554     0.16300
C563        C  0.31506273  0.22238382  0.19177435     0.25700
C564        C  0.30601901  0.25345581  0.20650342    -0.42600
C565        C  0.32072980  0.28336811  0.19417558     0.32700
C566        C  0.34447066  0.28217902  0.16793881     0.14400
F567        F  0.34536694  0.19101345  0.15039313    -0.12900
F568        F  0.31295468  0.31369734  0.20829712    -0.13500
F569        F  0.30067188  0.19317439  0.20260330    -0.15700
F570        F  0.35944057  0.31132816  0.15773467    -0.14300
F571        F  0.34730960  0.28977926  0.09228466    -0.14300
F572        F  0.45914753  0.20760157  0.10587063    -0.15700
C573        C  0.28376483  0.11801622  0.40451994     0.14400
C574        C  0.25434645  0.12936751  0.38847894     0.01300
C575        C  0.22328723  0.11389753  0.39585771     0.16300
C576        C  0.22171306  0.08698736  0.41881062     0.25700
C577        C  0.25131245  0.07525217  0.43497199    -0.40600
C578        C  0.28236410  0.09133547  0.42755932     0.32700
C579        C  0.25651643  0.15629014  0.36278623     0.01400
F580        F  0.19459495  0.12442472  0.38023125    -0.12900
F581        F  0.31157493  0.08151565  0.44266503    -0.13500
C582        C  0.27016203  0.14903899  0.33086879     0.16300
C583        C  0.27210091  0.17415970  0.30613385     0.25700
C584        C  0.26031983  0.20710482  0.31292588    -0.40600
C585        C  0.24736020  0.21445384  0.34537276     0.32700
C586        C  0.24543752  0.18918314  0.37005604     0.14400
F587        F  0.28093419  0.11728995  0.32345423    -0.12900
F588        F  0.23695362  0.24618301  0.35340569    -0.13500
F589        F  0.28435019  0.16578737  0.27516903    -0.15700
F590        F  0.23303118  0.19683805  0.40115821    -0.14300
F591        F  0.31396850  0.13293681  0.39785958    -0.14300
F592        F  0.19128790  0.07220164  0.42469194    -0.15700
C593        C  0.09881052  0.37725950  0.28062293     0.14400
C594        C  0.12467191  0.37685969  0.25619550     0.01300
C595        C  0.12499708  0.40180404  0.23091203     0.16300
C596        C  0.10011700  0.42687039  0.23021018     0.25700
C597        C  0.07470969  0.42779071  0.25510694    -0.40600
C598        C  0.07419896  0.40266196  0.28026232     0.32700
C599        C  0.15190135  0.35114198  0.25755505     0.01400
F600        F  0.15002957  0.40248758  0.20740094    -0.12900
F601        F  0.04937276  0.40215009  0.30400404    -0.13500
C602        C  0.15917611  0.33098482  0.22914194     0.16300
C603        C  0.18615827  0.30815370  0.22984049     0.25700
C604        C  0.20578901  0.30454799  0.25920324    -0.40600
C605        C  0.19803307  0.32400470  0.28789488     0.32700
C606        C  0.17154126  0.34740475  0.28696378     0.14400
F607        F  0.13980998  0.33305761  0.20088111    -0.12900
F608        F  0.21681692  0.32111532  0.31646855    -0.13500
F609        F  0.19248857  0.28880539  0.20216680    -0.15700
F610        F  0.16567630  0.36711701  0.31447730    -0.14300
F611        F  0.09710486  0.35272948  0.30455081    -0.14300
F612        F  0.10154501  0.45088923  0.20575493    -0.15700
loop_ 
_geom_bond_atom_site_label_1 
_geom_bond_atom_site_label_2 
_geom_bond_distance 
_geom_bond_site_symmetry_2 
_ccdc_geom_bond_type 
C1            N2   1.358       .  A
C1            N6   1.361       .  A
C1          C584   1.484       .  S
N2            C3   1.357       .  A
C3            N4   1.358       .  A
C3          C604   1.472       .  S
N4            C5   1.358       .  A
C5            N6   1.360       .  A
C5          C564   1.478       .  S
O7          Ni15   1.917   1_655  S
O7           C17   1.282       .  A
O8          Ni15   1.923       .  S
O8           C18   1.283       .  A
O9          Ni15   1.915   1_655  S
O9           C19   1.281       .  A
O10         Ni15   1.917       .  S
O10          C20   1.281       .  A
O11         Ni16   1.913       .  S
O11          C20   1.280       .  A
O12         Ni16   1.912   1_655  S
O12          C19   1.280       .  A
O13         Ni16   1.908       .  S
O13          C18   1.280       .  A
O14         Ni16   1.908   1_655  S
O14          C17   1.280       .  A
Ni15        Ni16   2.385       .  S
C17         C524   1.483       .  S
C18         C504   1.487       .  S
C19         C537   1.480       .  S
C20         C597   1.477       .  S
C21          N22   1.360       .  A
C21          N26   1.357       .  A
C21         C544   1.491       .  S
N22          C23   1.360       .  A
C23          N24   1.357       .  A
C23         C477   1.491       .  S
N24          C25   1.355       .  A
C25          N26   1.355       .  A
C25         C457   1.472       .  S
O27         Ni35   1.924       .  S
O27          C37   1.283       .  A
O28         Ni35   1.915   1_565  S
O28          C38   1.281       .  A
O29         Ni35   1.912       .  S
O29          C39   1.281       .  A
O30         Ni35   1.916   1_565  S
O30          C40   1.280       .  A
O31         Ni36   1.910       .  S
O31          C40   1.280       .  A
O32         Ni36   1.911   1_545  S
O32          C39   1.280       .  A
O33         Ni36   1.910       .  S
O33          C38   1.280       .  A
O34         Ni36   1.910   1_545  S
O34          C37   1.280       .  A
Ni35        Ni36   2.386   1_545  S
C37         C577   1.489       .  S
C38         C437   1.475       .  S
C39         C424   1.482       .  S
C40         C397   1.468       .  S
O41         Ni49   1.915   1_565  S
O41          C51   1.281       .  A
O42         Ni49   1.915       .  S
O42          C52   1.281       .  A
O43         Ni49   1.916   1_565  S
O43          C53   1.281       .  A
O44         Ni49   1.912       .  S
O44          C54   1.280       .  A
O45         Ni50   1.916       .  S
O45          C54   1.281       .  A
O46         Ni50   1.916   1_565  S
O46          C53   1.282       .  A
O47         Ni50   1.908       .  S
O47          C52   1.280       .  A
O48         Ni50   1.910   1_565  S
O48          C51   1.280       .  A
Ni49        Ni50   2.385       .  S
C51         C484   1.477       .  S
C52         C377   1.483       .  S
C53         C357   1.488       .  S
C54         C337   1.480       .  S
C55          N56   1.359       .  A
C55          N60   1.356       .  A
C55         C297   1.487       .  S
N56          C57   1.360       .  A
C57          N58   1.358       .  A
C57         C324   1.483       .  S
N58          C59   1.357       .  A
C59          N60   1.355       .  A
C59         C444   1.485       .  S
O61         Ni69   1.917   1_455  S
O61          C71   1.281       .  A
O62         Ni69   1.919       .  S
O62          C72   1.282       .  A
O63         Ni69   1.923   1_455  S
O63          C73   1.283       .  A
O64         Ni69   1.923       .  S
O64          C74   1.283       .  A
O65         Ni70   1.909       .  S
O65          C74   1.280       .  A
O66         Ni70   1.909   1_455  S
O66          C73   1.280       .  A
O67         Ni70   1.923       .  S
O67          C72   1.283       .  A
O68         Ni70   1.920   1_455  S
O68          C71   1.282       .  A
Ni69        Ni70   2.381       .  S
C71         C244   1.489       .  S
C72         C264   1.494       .  S
C73         C317   1.489       .  S
C74         C284   1.489       .  S
C75          N76   1.361       .  A
C75          N80   1.356       .  A
C75         C277   1.486       .  S
N76          C77   1.361       .  A
C77          N78   1.356       .  A
C77         C224   1.473       .  S
N78          C79   1.356       .  A
C79          N80   1.355       .  A
C79         C384   1.485       .  S
O81         Ni89   1.914   1_556  S
O81          C91   1.281       .  A
O82         Ni89   1.913       .  S
O82          C92   1.281       .  A
O83         Ni89   1.918   1_556  S
O83          C93   1.281       .  A
O84         Ni89   1.916       .  S
O84          C94   1.281       .  A
O85         Ni90   1.915       .  S
O85          C94   1.281       .  A
O86         Ni90   1.914   1_556  S
O86          C93   1.281       .  A
O87         Ni90   1.913       .  S
O87          C92   1.281       .  A
O88         Ni90   1.913   1_556  S
O88          C91   1.281       .  A
Ni89        Ni90   2.386       .  S
C91         C304   1.481       .  S
C92         C464   1.482       .  S
C93         C177   1.476       .  S
C94         C197   1.479       .  S
O95        Ni103   1.919   1_556  S
O95         C105   1.282       .  A
O96        Ni103   1.919       .  S
O96         C106   1.281       .  A
O97        Ni103   1.909       .  S
O97         C107   1.280       .  A
O98        Ni103   1.907   1_556  S
O98         C108   1.280       .  A
O99        Ni104   1.920   1_556  S
O99         C108   1.282       .  A
O100       Ni104   1.919       .  S
O100        C107   1.282       .  A
O101       Ni104   1.917       .  S
O101        C106   1.281       .  A
O102       Ni104   1.915   1_556  S
O102        C105   1.280       .  A
Ni103      Ni104   2.386       .  S
C105        C217   1.477       .  S
C106        C557   1.475       .  S
C107        C157   1.478       .  S
C108        C137   1.486       .  S
C109        N110   1.357       .  A
C109        N114   1.358       .  A
C109        C364   1.490       .  S
N110        C111   1.358       .  A
C111        N112   1.362       .  A
C111        C184   1.496       .  S
N112        C113   1.362       .  A
C113        N114   1.359       .  A
C113        C257   1.497       .  S
C115        N116   1.358       .  A
C115        N120   1.358       .  A
C115        C517   1.479       .  S
N116        C117   1.358       .  A
C117        N118   1.356       .  A
C117        C164   1.484       .  S
N118        C119   1.357       .  A
C119        N120   1.358       .  A
C119        C344   1.488       .  S
C121        N122   1.355       .  A
C121        N126   1.359       .  A
C121        C417   1.480       .  S
N122        C123   1.355       .  A
C123        N124   1.358       .  A
C123        C144   1.482       .  S
N124        C125   1.359       .  A
C125        N126   1.359       .  A
C125        C237   1.481       .  S
C127        N128   1.360       .  A
C127        N132   1.359       .  A
C127        C204   1.488       .  S
N128        C129   1.359       .  A
C129        N130   1.356       .  A
C129        C497   1.481       .  S
N130        C131   1.355       .  A
C131        N132   1.357       .  A
C131        C404   1.472       .  S
C133        C134   1.404       .  A
C133        C138   1.399       .  A
C133        F151   1.358       .  S
C134        C139   1.476       .  S
C134        C135   1.401       .  A
C135        C136   1.395       .  A
C135        F140   1.358       .  S
C136        C137   1.413       .  A
C136        F152   1.358       .  S
C137        C138   1.412       .  A
C138        F141   1.358       .  S
C139        C142   1.403       .  A
C139        C146   1.403       .  A
C142        C143   1.396       .  A
C142        F147   1.358       .  S
C143        C144   1.409       .  A
C143        F149   1.358       .  S
C144        C145   1.412       .  A
C145        C146   1.398       .  A
C145        F148   1.358       .  S
C146        F150   1.358       .  S
C153        C154   1.402       .  A
C153        C158   1.398       .  A
C153        F171   1.358       .  S
C154        C159   1.470       .  S
C154        C155   1.400       .  A
C155        C156   1.397       .  A
C155        F160   1.358       .  S
C156        C157   1.410       .  A
C156        F172   1.358       .  S
C157        C158   1.409       .  A
C158        F161   1.358       .  S
C159        C162   1.401       .  A
C159        C166   1.399       .  A
C162        C163   1.398       .  A
C162        F167   1.358       .  S
C163        C164   1.411       .  A
C163        F169   1.358       .  S
C164        C165   1.412       .  A
C165        C166   1.397       .  A
C165        F168   1.358       .  S
C166        F170   1.358       .  S
C173        C174   1.402       .  A
C173        C178   1.397       .  A
C173        F191   1.358       .  S
C174        C179   1.476       .  S
C174        C175   1.404       .  A
C175        C176   1.400       .  A
C175        F180   1.358       .  S
C176        C177   1.408       .  A
C176        F192   1.358       .  S
C177        C178   1.407       .  A
C178        F181   1.358       .  S
C179        C182   1.400       .  A
C179        C186   1.401       .  A
C182        C183   1.399       .  A
C182        F187   1.358       .  S
C183        C184   1.417       .  A
C183        F189   1.357       .  S
C184        C185   1.414       .  A
C185        C186   1.399       .  A
C185        F188   1.356       .  S
C186        F190   1.358       .  S
C193        C194   1.402       .  A
C193        C198   1.398       .  A
C193        F211   1.358       .  S
C194        C199   1.473       .  S
C194        C195   1.401       .  A
C195        C196   1.398       .  A
C195        F200   1.358       .  S
C196        C197   1.409       .  A
C196        F212   1.358       .  S
C197        C198   1.409       .  A
C198        F201   1.358       .  S
C199        C202   1.400       .  A
C199        C206   1.400       .  A
C202        C203   1.398       .  A
C202        F207   1.358       .  S
C203        C204   1.413       .  A
C203        F209   1.358       .  S
C204        C205   1.413       .  A
C205        C206   1.398       .  A
C205        F208   1.358       .  S
C206        F210   1.358       .  S
C213        C214   1.406       .  A
C213        C218   1.397       .  A
C213        F231   1.358       .  S
C214        C219   1.484       .  S
C214        C215   1.407       .  A
C215        C216   1.401       .  A
C215        F220   1.358       .  S
C216        C217   1.408       .  A
C216        F232   1.358       .  S
C217        C218   1.405       .  A
C218        F221   1.358       .  S
C219        C222   1.407       .  A
C219        C226   1.408       .  A
C222        C223   1.400       .  A
C222        F227   1.358       .  S
C223        C224   1.407       .  A
C223        F229   1.358       .  S
C224        C225   1.403       .  A
C225        C226   1.398       .  A
C225        F228   1.358       .  S
C226        F230   1.358       .  S
C233        C234   1.402       .  A
C233        C238   1.399       .  A
C233        F251   1.358       .  S
C234        C239   1.475       .  S
C234        C235   1.403       .  A
C235        C236   1.400       .  A
C235        F240   1.358       .  S
C236        C237   1.410       .  A
C236        F252   1.358       .  S
C237        C238   1.409       .  A
C238        F241   1.358       .  S
C239        C242   1.401       .  A
C239        C246   1.401       .  A
C242        C243   1.399       .  A
C242        F247   1.358       .  S
C243        C244   1.413       .  A
C243        F249   1.358       .  S
C244        C245   1.412       .  A
C245        C246   1.400       .  A
C245        F248   1.358       .  S
C246        F250   1.358       .  S
C253        C254   1.405       .  A
C253        C258   1.400       .  A
C253        F271   1.358       .  S
C254        C259   1.490       .  S
C254        C255   1.406       .  A
C255        C256   1.401       .  A
C255        F260   1.358       .  S
C256        C257   1.413       .  A
C256        F272   1.357       .  S
C257        C258   1.415       .  A
C258        F261   1.357       .  S
C259        C262   1.406       .  A
C259        C266   1.406       .  A
C262        C263   1.401       .  A
C262        F267   1.358       .  S
C263        C264   1.412       .  A
C263        F269   1.358       .  S
C264        C265   1.413       .  A
C265        C266   1.401       .  A
C265        F268   1.358       .  S
C266        F270   1.358       .  S
C273        C274   1.406       .  A
C273        C278   1.401       .  A
C273        F291   1.358       .  S
C274        C279   1.480       .  S
C274        C275   1.401       .  A
C275        C276   1.395       .  A
C275        F280   1.358       .  S
C276        C277   1.413       .  A
C276        F292   1.358       .  S
C277        C278   1.410       .  A
C278        F281   1.358       .  S
C279        C282   1.402       .  A
C279        C286   1.404       .  A
C282        C283   1.398       .  A
C282        F287   1.358       .  S
C283        C284   1.414       .  A
C283        F289   1.358       .  S
C284        C285   1.411       .  A
C285        C286   1.399       .  A
C285        F288   1.358       .  S
C286        F290   1.358       .  S
C293        C294   1.400       .  A
C293        C298   1.395       .  A
C293        F311   1.358       .  S
C294        C299   1.473       .  S
C294        C295   1.402       .  A
C295        C296   1.398       .  A
C295        F300   1.358       .  S
C296        C297   1.412       .  A
C296        F312   1.358       .  S
C297        C298   1.414       .  A
C298        F301   1.357       .  S
C299        C302   1.402       .  A
C299        C306   1.402       .  A
C302        C303   1.397       .  A
C302        F307   1.358       .  S
C303        C304   1.410       .  A
C303        F309   1.358       .  S
C304        C305   1.410       .  A
C305        C306   1.397       .  A
C305        F308   1.358       .  S
C306        F310   1.358       .  S
C313        C314   1.405       .  A
C313        C318   1.400       .  A
C313        F331   1.358       .  S
C314        C319   1.481       .  S
C314        C315   1.402       .  A
C315        C316   1.397       .  A
C315        F320   1.358       .  S
C316        C317   1.413       .  A
C316        F332   1.358       .  S
C317        C318   1.412       .  A
C318        F321   1.358       .  S
C319        C322   1.404       .  A
C319        C326   1.405       .  A
C322        C323   1.397       .  A
C322        F327   1.358       .  S
C323        C324   1.410       .  A
C323        F329   1.358       .  S
C324        C325   1.410       .  A
C325        C326   1.399       .  A
C325        F328   1.358       .  S
C326        F330   1.358       .  S
C333        C334   1.402       .  A
C333        C338   1.398       .  A
C333        F351   1.358       .  S
C334        C339   1.474       .  S
C334        C335   1.403       .  A
C335        C336   1.397       .  A
C335        F340   1.358       .  S
C336        C337   1.409       .  A
C336        F352   1.358       .  S
C337        C338   1.410       .  A
C338        F341   1.358       .  S
C339        C342   1.400       .  A
C339        C346   1.402       .  A
C342        C343   1.395       .  A
C342        F347   1.358       .  S
C343        C344   1.413       .  A
C343        F349   1.357       .  S
C344        C345   1.414       .  A
C345        C346   1.399       .  A
C345        F348   1.358       .  S
C346        F350   1.358       .  S
C353        C354   1.402       .  A
C353        C358   1.398       .  A
C353        F371   1.358       .  S
C354        C359   1.477       .  S
C354        C355   1.402       .  A
C355        C356   1.399       .  A
C355        F360   1.358       .  S
C356        C357   1.413       .  A
C356        F372   1.358       .  S
C357        C358   1.412       .  A
C358        F361   1.358       .  S
C359        C362   1.402       .  A
C359        C366   1.402       .  A
C362        C363   1.398       .  A
C362        F367   1.358       .  S
C363        C364   1.412       .  A
C363        F369   1.357       .  S
C364        C365   1.414       .  A
C365        C366   1.398       .  A
C365        F368   1.357       .  S
C366        F370   1.358       .  S
C373        C374   1.403       .  A
C373        C378   1.397       .  A
C373        F391   1.358       .  S
C374        C379   1.474       .  S
C374        C375   1.401       .  A
C375        C376   1.395       .  A
C375        F380   1.358       .  S
C376        C377   1.412       .  A
C376        F392   1.358       .  S
C377        C378   1.411       .  A
C378        F381   1.358       .  S
C379        C382   1.401       .  A
C379        C386   1.402       .  A
C382        C383   1.396       .  A
C382        F387   1.358       .  S
C383        C384   1.414       .  A
C383        F389   1.358       .  S
C384        C385   1.412       .  A
C385        C386   1.396       .  A
C385        F388   1.358       .  S
C386        F390   1.358       .  S
C393        C394   1.407       .  A
C393        C398   1.399       .  A
C393        F411   1.358       .  S
C394        C399   1.479       .  S
C394        C395   1.405       .  A
C395        C396   1.395       .  A
C395        F400   1.358       .  S
C396        C397   1.403       .  A
C396        F412   1.358       .  S
C397        C398   1.405       .  A
C398        F401   1.358       .  S
C399        C402   1.405       .  A
C399        C406   1.406       .  A
C402        C403   1.397       .  A
C402        F407   1.358       .  S
C403        C404   1.406       .  A
C403        F409   1.358       .  S
C404        C405   1.405       .  A
C405        C406   1.397       .  A
C405        F408   1.358       .  S
C406        F410   1.358       .  S
C413        C414   1.402       .  A
C413        C418   1.396       .  A
C413        F431   1.358       .  S
C414        C419   1.471       .  S
C414        C415   1.401       .  A
C415        C416   1.398       .  A
C415        F420   1.358       .  S
C416        C417   1.412       .  A
C416        F432   1.358       .  S
C417        C418   1.408       .  A
C418        F421   1.357       .  S
C419        C422   1.401       .  A
C419        C426   1.401       .  A
C422        C423   1.397       .  A
C422        F427   1.358       .  S
C423        C424   1.412       .  A
C423        F429   1.358       .  S
C424        C425   1.411       .  A
C425        C426   1.395       .  A
C425        F428   1.358       .  S
C426        F430   1.358       .  S
C433        C434   1.401       .  A
C433        C438   1.396       .  A
C433        F451   1.358       .  S
C434        C439   1.468       .  S
C434        C435   1.401       .  A
C435        C436   1.397       .  A
C435        F440   1.358       .  S
C436        C437   1.409       .  A
C436        F452   1.358       .  S
C437        C438   1.409       .  A
C438        F441   1.358       .  S
C439        C442   1.400       .  A
C439        C446   1.399       .  A
C442        C443   1.397       .  A
C442        F447   1.358       .  S
C443        C444   1.412       .  A
C443        F449   1.358       .  S
C444        C445   1.414       .  A
C445        C446   1.396       .  A
C445        F448   1.358       .  S
C446        F450   1.358       .  S
C453        C454   1.405       .  A
C453        C458   1.396       .  A
C453        F471   1.358       .  S
C454        C459   1.478       .  S
C454        C455   1.406       .  A
C455        C456   1.398       .  A
C455        F460   1.358       .  S
C456        C457   1.406       .  A
C456        F472   1.358       .  S
C457        C458   1.405       .  A
C458        F461   1.358       .  S
C459        C462   1.404       .  A
C459        C466   1.404       .  A
C462        C463   1.396       .  A
C462        F467   1.358       .  S
C463        C464   1.410       .  A
C463        F469   1.358       .  S
C464        C465   1.411       .  A
C465        C466   1.397       .  A
C465        F468   1.358       .  S
C466        F470   1.358       .  S
C473        C474   1.402       .  A
C473        C478   1.397       .  A
C473        F491   1.358       .  S
C474        C479   1.477       .  S
C474        C475   1.402       .  A
C475        C476   1.396       .  A
C475        F480   1.358       .  S
C476        C477   1.413       .  A
C476        F492   1.356       .  S
C477        C478   1.415       .  A
C478        F481   1.358       .  S
C479        C482   1.404       .  A
C479        C486   1.404       .  A
C482        C483   1.396       .  A
C482        F487   1.358       .  S
C483        C484   1.408       .  A
C483        F489   1.358       .  S
C484        C485   1.408       .  A
C485        C486   1.397       .  A
C485        F488   1.358       .  S
C486        F490   1.358       .  S
C493        C494   1.405       .  A
C493        C498   1.397       .  A
C493        F511   1.358       .  S
C494        C499   1.481       .  S
C494        C495   1.404       .  A
C495        C496   1.398       .  A
C495        F500   1.358       .  S
C496        C497   1.410       .  A
C496        F512   1.358       .  S
C497        C498   1.408       .  A
C498        F501   1.358       .  S
C499        C502   1.405       .  A
C499        C506   1.402       .  A
C502        C503   1.401       .  A
C502        F507   1.358       .  S
C503        C504   1.412       .  A
C503        F509   1.358       .  S
C504        C505   1.412       .  A
C505        C506   1.395       .  A
C505        F508   1.358       .  S
C506        F510   1.358       .  S
C513        C514   1.400       .  A
C513        C518   1.397       .  A
C513        F531   1.358       .  S
C514        C519   1.469       .  S
C514        C515   1.401       .  A
C515        C516   1.397       .  A
C515        F520   1.358       .  S
C516        C517   1.410       .  A
C516        F532   1.358       .  S
C517        C518   1.410       .  A
C518        F521   1.358       .  S
C519        C522   1.399       .  A
C519        C526   1.401       .  A
C522        C523   1.396       .  A
C522        F527   1.358       .  S
C523        C524   1.413       .  A
C523        F529   1.358       .  S
C524        C525   1.411       .  A
C525        C526   1.397       .  A
C525        F528   1.358       .  S
C526        F530   1.358       .  S
C533        C534   1.404       .  A
C533        C538   1.397       .  A
C533        F551   1.358       .  S
C534        C539   1.477       .  S
C534        C535   1.403       .  A
C535        C536   1.397       .  A
C535        F540   1.358       .  S
C536        C537   1.409       .  A
C536        F552   1.358       .  S
C537        C538   1.409       .  A
C538        F541   1.358       .  S
C539        C542   1.402       .  A
C539        C546   1.402       .  A
C542        C543   1.397       .  A
C542        F547   1.358       .  S
C543        C544   1.413       .  A
C543        F549   1.356       .  S
C544        C545   1.415       .  A
C545        C546   1.397       .  A
C545        F548   1.358       .  S
C546        F550   1.358       .  S
C553        C554   1.409       .  A
C553        C558   1.401       .  A
C553        F571   1.358       .  S
C554        C559   1.487       .  S
C554        C555   1.408       .  A
C555        C556   1.399       .  A
C555        F560   1.358       .  S
C556        C557   1.405       .  A
C556        F572   1.358       .  S
C557        C558   1.405       .  A
C558        F561   1.358       .  S
C559        C562   1.408       .  A
C559        C566   1.407       .  A
C562        C563   1.400       .  A
C562        F567   1.358       .  S
C563        C564   1.406       .  A
C563        F569   1.358       .  S
C564        C565   1.406       .  A
C565        C566   1.400       .  A
C565        F568   1.358       .  S
C566        F570   1.358       .  S
C573        C574   1.400       .  A
C573        C578   1.396       .  A
C573        F591   1.358       .  S
C574        C579   1.475       .  S
C574        C575   1.403       .  A
C575        C576   1.401       .  A
C575        F580   1.358       .  S
C576        C577   1.413       .  A
C576        F592   1.358       .  S
C577        C578   1.414       .  A
C578        F581   1.358       .  S
C579        C582   1.402       .  A
C579        C586   1.402       .  A
C582        C583   1.398       .  A
C582        F587   1.358       .  S
C583        C584   1.409       .  A
C583        F589   1.357       .  S
C584        C585   1.412       .  A
C585        C586   1.400       .  A
C585        F588   1.358       .  S
C586        F590   1.358       .  S
C593        C594   1.406       .  A
C593        C598   1.399       .  A
C593        F611   1.358       .  S
C594        C599   1.482       .  S
C594        C595   1.406       .  A
C595        C596   1.397       .  A
C595        F600   1.358       .  S
C596        C597   1.407       .  A
C596        F612   1.358       .  S
C597        C598   1.408       .  A
C598        F601   1.358       .  S
C599        C602   1.407       .  A
C599        C606   1.407       .  A
C602        C603   1.398       .  A
C602        F607   1.358       .  S
C603        C604   1.405       .  A
C603        F609   1.358       .  S
C604        C605   1.404       .  A
C605        C606   1.398       .  A
C605        F608   1.358       .  S
C606        F610   1.358       .  S
