geometry optimzed in LAMMPS
_audit_creation_date              2020-11-30 
_audit_creation_method            'lammps2cif' 
_symmetry_space_group_name_H-M    'P1' 
_symmetry_Int_Tables_number       1 
_symmetry_cell_setting            triclinic 
loop_ 
_symmetry_equiv_pos_as_xyz 
  x,y,z 
_cell_length_a                    29.1120137 
_cell_length_b                    28.743299553564004 
_cell_length_c                    19.397854193717162 
_cell_angle_alpha                 91.1704595875489 
_cell_angle_beta                  88.47825995351606 
_cell_angle_gamma                 88.82350885394378 
loop_ 
_atom_site_label 
_atom_site_type_symbol 
_atom_site_fract_x 
_atom_site_fract_y 
_atom_site_fract_z 
_atom_site_charge 
O1          O  0.25134695  0.16949071  0.31229459    -0.78400
O2          O  0.23961407  0.16577998  0.70369582    -0.80000
O3          O  0.34864418  0.15148330  0.49364910    -0.77000
O4          O  0.20577457  0.10164632  0.49717995    -0.75400
O5          O  0.13631405  0.14040605  0.50847991    -0.77200
O6          O  0.38569297  0.22091477  0.50252862    -0.78100
O7          O  0.26564004  0.11556487  0.61728019    -0.79400
O8          O  0.26826693  0.11887522  0.39799591    -0.79700
Eu9        Eu  0.26379204  0.15999263  0.50980262     2.39200
O10         O  0.20441096  0.19138006  0.58326425    -0.87200
O11         O  0.29496003  0.21890049  0.44338516    -0.90800
C12         C  0.26073710  0.12801297  0.33442689     1.03900
C13         C  0.25174506  0.12452081  0.68009100     1.03700
C14         C  0.38470560  0.17718822  0.49097941     1.03600
C15         C  0.16170851  0.10328321  0.49861749     1.01500
H16         H  0.31698292  0.19941835  0.61000760     0.31200
O17         O  0.29365496  0.21566924  0.58488817    -0.99600
H18         H  0.19263306  0.17047247  0.41142948     0.31300
O19         O  0.20668252  0.19348414  0.44026224    -1.02200
O20         O  0.23165890  0.32796782  0.71193090    -0.79400
O21         O  0.23395843  0.32717982  0.31304271    -0.78900
O22         O  0.36507277  0.27241430  0.62793640    -0.77400
O23         O  0.10320347  0.22464248  0.62178329    -0.80700
O24         O  0.10882929  0.23447469  0.40342374    -0.78600
O25         O  0.37135768  0.27745334  0.40935611    -0.77200
O26         O  0.25767667  0.40124707  0.52276784    -0.78700
O27         O  0.12827513  0.35048607  0.53304366    -0.80700
O28         O  0.32717111  0.36261422  0.52451793    -0.77400
O29         O  0.08753735  0.28408450  0.53930360    -0.80100
O30         O  0.31360428  0.25268615  0.71336800    -0.75800
O31         O  0.32349563  0.25494604  0.32374885    -0.75800
O32         O  0.16173829  0.24753713  0.31671140    -0.75500
O33         O  0.15229144  0.24418247  0.70733672    -0.79000
O34         O  0.21737929  0.37855613  0.62491793    -0.78400
O35         O  0.21345525  0.37909946  0.40006490    -0.76700
Eu36       Eu  0.23488549  0.24737843  0.65967870     2.39800
Eu37       Eu  0.24066984  0.24932957  0.36771531     2.39600
Eu38       Eu  0.32470543  0.27615733  0.51762157     2.38400
Eu39       Eu  0.14795766  0.22530990  0.51371715     2.39900
Eu40       Eu  0.21027466  0.33745025  0.51299740     2.39800
O41         O  0.17997959  0.28145408  0.43989541    -0.91100
O42         O  0.26487852  0.30528852  0.58722066    -0.90000
C43         C  0.22650551  0.36964888  0.68814997     1.04000
C44         C  0.22459842  0.36913832  0.33600653     1.02700
C45         C  0.35524465  0.26101355  0.69067785     1.02100
C46         C  0.11122666  0.23622006  0.68467314     1.04100
C47         C  0.11966918  0.24328863  0.34003329     1.03100
C48         C  0.36392030  0.26549569  0.34609700     1.01900
C49         C  0.30108042  0.39986223  0.52562695     1.02000
C50         C  0.09127227  0.32835959  0.54580061     1.04600
H51         H  0.28632273  0.33038109  0.41623679     0.32000
O52         O  0.27091824  0.30667871  0.44232994    -1.03300
H53         H  0.15894235  0.29762096  0.61604333     0.34000
O54         O  0.18105818  0.28132308  0.58605277    -1.05900
N55         N  0.52082528  0.06125086  0.35396249    -0.34900
N56         N  0.44404165  0.51721904  0.40010190    -0.55500
N57         N  0.46942703  0.46997354  0.52286619    -0.34900
N58         N  0.06324905  0.48017911  0.47826977    -0.55500
C59         C  0.49974940  0.10327196  0.36436294     0.28700
C60         C  0.06939631  0.06813087  0.36675769     0.28700
C61         C  0.42494146  0.45773034  0.52058424     0.28700
C62         C  0.00563097  0.45976776  0.60432274     0.28700
C63         C  0.42340486  0.07390435  0.37856612     0.37300
C64         C  0.40188022  0.50437924  0.41926784     0.37300
C65         C  0.08859804  0.98549008  0.38090420     0.37300
C66         C  0.07745536  0.45603414  0.53251791     0.37300
C67         C  0.53160978  0.13639105  0.38061211    -0.20200
C68         C  0.07725987  0.11500172  0.37897061    -0.20200
C69         C  0.41706129  0.42362955  0.56942040    -0.20200
C70         C  0.98053565  0.44648842  0.66132207    -0.20200
C71         C  0.37599182  0.07472354  0.37126569    -0.21200
C72         C  0.36896019  0.53020049  0.38586297    -0.21200
C73         C  0.11735539  0.94659785  0.37420750    -0.21200
C74         C  0.12393839  0.44574331  0.52589090    -0.21200
C75         C  0.45193548  0.11095614  0.36505786    -0.16600
C76         C  0.10178326  0.03180918  0.37757313    -0.16600
C77         C  0.04876283  0.44022846  0.58580643    -0.16600
C78         C  0.39254497  0.47368932  0.47224846    -0.16600
H79         H  0.52513639  0.17272080  0.39330493     0.16300
H80         H  0.10966456  0.13129655  0.38801440     0.16300
H81         H  0.38655781  0.40522385  0.58253724     0.16300
H82         H  0.99146330  0.42177581  0.69817886     0.16300
H83         H  0.35674600  0.09662034  0.33719503     0.12600
H84         H  0.33208410  0.52988432  0.39452170     0.14600
H85         H  0.15281840  0.94507832  0.35619576     0.14600
H86         H  0.14584314  0.43045205  0.56387812     0.14600
H87         H  0.50476876  0.03021497  0.34121931     0.27900
H88         H  0.48512917  0.49627657  0.49585297     0.27900
O89         O  0.49607993  0.41337616  0.80681411    -0.78400
O90         O  0.49690811  0.41927132  0.20715772    -0.80000
O91         O  0.08373897  0.38212704  0.99815101    -0.77000
O92         O  0.44169453  0.35313245  0.03685204    -0.75400
O93         O  0.38415384  0.40743170  0.04507758    -0.77200
O94         O  0.13015478  0.44522736  0.98953118    -0.78100
O95         O  0.50600165  0.36439243  0.12015041    -0.79400
O96         O  0.49962404  0.36158237  0.89497434    -0.79700
Eu97       Eu  0.50446763  0.40260572  0.00735289     2.39200
O98         O  0.45520966  0.44749548  0.07897566    -0.87200
O99         O  0.04412707  0.46145981  0.93902353    -0.90800
C100        C  0.49678330  0.37134289  0.83040033     1.03900
C101        C  0.50124842  0.37651369  0.18455866     1.03700
C102        C  0.12236524  0.40149984  0.98713824     1.03600
C103        C  0.40079100  0.36638850  0.05416143     1.01500
H104        H  0.06739767  0.44494121  0.10783869     0.31200
O105        O  0.04547444  0.46259123  0.08175628    -0.99600
H106        H  0.43430778  0.42033479  0.90880404     0.31300
O107        O  0.45288433  0.44173671  0.93442715    -1.02200
O108        O  0.51340851  0.08542234  0.20542498    -0.79400
O109        O  0.49852697  0.07393003  0.81276670    -0.78900
O110        O  0.12647899  0.51505756  0.11654896    -0.77400
O111        O  0.36060802  0.48462856  0.11838137    -0.80700
O112        O  0.37460840  0.99533160  0.91075220    -0.78600
O113        O  0.14159970  0.00668049  0.89555496    -0.77200
O114        O  0.07643362  0.13782764  0.99016030    -0.78700
O115        O  0.43314502  0.13116018  0.04082697    -0.80700
O116        O  0.13583390  0.08462837  0.99088084    -0.77400
O117        O  0.38096409  0.07333750  0.04793982    -0.80100
O118        O  0.07362566  0.50785312  0.20525940    -0.75800
O119        O  0.08998770  0.00210170  0.80870567    -0.75800
O120        O  0.42744518  0.99313397  0.82092084    -0.75500
O121        O  0.41183340  0.49141814  0.20573335    -0.79000
O122        O  0.50769106  0.13741823  0.11753515    -0.78400
O123        O  0.49218987  0.12892132  0.89982688    -0.76700
Eu124      Eu  0.49322425  0.49786067  0.15427218     2.39800
Eu125      Eu  0.50689234  0.99557026  0.86772845     2.39600
Eu126      Eu  0.08371530  0.51495737  0.00840009     2.38400
Eu127      Eu  0.40354828  0.48510811  0.00895513     2.39900
Eu128      Eu  0.50477598  0.09190888  0.01156470     2.39800
O129        O  0.45913005  0.04462938  0.94177498    -0.91100
O130        O  0.05561911  0.05472231  0.08304101    -0.90000
C131        C  0.51103197  0.12751783  0.18145609     1.04000
C132        C  0.49266111  0.11668100  0.83529704     1.02700
C133        C  0.11579469  0.51070118  0.18119918     1.02100
C134        C  0.37020051  0.48711266  0.18281601     1.04100
C135        C  0.38544397  0.99365842  0.84540994     1.03100
C136        C  0.13177490  0.00396487  0.83131934     1.01900
C137        C  0.11864586  0.12522310  0.98114814     1.02000
C138        C  0.39328087  0.11585074  0.05577017     1.04600
H139        H  0.07083329  0.06956093  0.90453506     0.32000
O140        O  0.05385732  0.05007436  0.93557735    -1.03300
H141        H  0.44652747  0.06341135  0.12122801     0.34000
O142        O  0.46473246  0.04467216  0.08861053    -1.05900
N143        N  0.25584676  0.31680752  0.97149689    -0.34900
N144        N  0.22359671  0.25834248  0.85208989    -0.55500
N145        N  0.24813406  0.18847797  0.96593356    -0.34900
N146        N  0.26421855  0.24885952  0.07400157    -0.55500
C147        C  0.25198679  0.34290549  0.91500762     0.28700
C148        C  0.27926212  0.34133016  0.01811530     0.28700
C149        C  0.24712478  0.17009365  0.90176836     0.28700
C150        C  0.27375903  0.16018609  0.00392885     0.28700
C151        C  0.19656238  0.29704234  0.85529989     0.37300
C152        C  0.19451483  0.22249291  0.85024494     0.37300
C153        C  0.27593498  0.28497404  0.11357263     0.37300
C154        C  0.27253458  0.21009420  0.10903287     0.37300
C155        C  0.27454786  0.38430440  0.92483630    -0.20200
C156        C  0.29125074  0.38359112  0.99013596    -0.20200
C157        C  0.27330811  0.12940207  0.89809990    -0.20200
C158        C  0.29048082  0.12317972  0.96256311    -0.20200
C159        C  0.15063720  0.28594614  0.85150350    -0.21200
C160        C  0.14955391  0.23849465  0.85005308    -0.21200
C161        C  0.28828392  0.26966480  0.17758170    -0.21200
C162        C  0.28650937  0.22181572  0.17475855    -0.21200
C163        C  0.21216816  0.34041651  0.87738348    -0.16600
C164        C  0.28950140  0.32711964  0.08551714    -0.16600
C165        C  0.28179014  0.16725453  0.07486576    -0.16600
C166        C  0.20754481  0.17674507  0.86526923    -0.16600
H167        H  0.27263254  0.41466156  0.89309509     0.16300
H168        H  0.30532208  0.41319546  0.01656048     0.16300
H169        H  0.27569505  0.10417714  0.85620143     0.16300
H170        H  0.31029206  0.09313889  0.97784166     0.16300
H171        H  0.12095438  0.30914607  0.85735121     0.14600
H172        H  0.11923636  0.21776190  0.85580430     0.14600
H173        H  0.30291134  0.29074427  0.21770449     0.14600
H174        H  0.30033531  0.19850945  0.21236358     0.14600
H175        H  0.23556029  0.28834135  0.98120402     0.27900
H176        H  0.22467813  0.21358333  0.98513354     0.27900
C177        C  0.99324974  0.25674301  0.26814540    -0.00800
C178        C  0.24158567  0.49578112  0.25772595    -0.00800
C179        C  0.98250767  0.24809274  0.75819772    -0.00800
C180        C  0.24513151  0.49797678  0.75751654    -0.00800
C181        C  0.19973571  0.50215010  0.21003987    -0.14700
C182        C  0.15487016  0.50707899  0.23083704    -0.29900
H183        H  0.20660316  0.50202166  0.15473996     0.14300
H184        H  0.16592019  0.00733856  0.28575106     0.14900
C185        C  0.32969083  0.48577848  0.23285045    -0.14700
C186        C  0.28556433  0.48916386  0.21132055    -0.29900
H187        H  0.35432713  0.99434587  0.29905707     0.14300
H188        H  0.28105970  0.49028492  0.15600605     0.14900
C189        C  0.49979271  0.33852910  0.23627723    -0.14700
C190        C  0.99709402  0.29805583  0.21872525    -0.29900
H191        H  0.99824714  0.35282696  0.29319253     0.14300
H192        H  0.49582422  0.28404380  0.16293279     0.14900
C193        C  0.51512708  0.16807369  0.22927623    -0.14700
C194        C  0.98873007  0.21103699  0.22460636    -0.29900
H195        H  0.04262506  0.16973971  0.26446037     0.14300
H196        H  0.45949756  0.20588487  0.19100195     0.14900
C197        C  0.15952323  0.37126592  0.96469800    -0.14700
C198        C  0.17735888  0.37514610  0.90072924    -0.29900
H199        H  0.16837843  0.34198550  0.99667769     0.14300
H200        H  0.16548972  0.40184740  0.86614029     0.14900
C201        C  0.37011004  0.33305106  0.08575444    -0.14700
C202        C  0.32994496  0.34859726  0.11432078    -0.29900
H203        H  0.37431143  0.29684125  0.06883322     0.14300
H204        H  0.32584847  0.38472759  0.13150173     0.14900
C205        C  0.31740810  0.13710608  0.10198446    -0.14700
C206        C  0.35988524  0.14970039  0.08372768    -0.29900
H207        H  0.30942009  0.10068348  0.10883414     0.14300
H208        H  0.36705261  0.18620132  0.07494133     0.14900
C209        C  0.14855641  0.15792168  0.94970854    -0.14700
C210        C  0.17146857  0.14593953  0.89046663    -0.29900
H211        H  0.15026471  0.19252446  0.97285837     0.14300
H212        H  0.16880583  0.11130771  0.86752842     0.14900
C213        C  0.34743474  0.99294698  0.79402666    -0.14700
C214        C  0.30211743  0.99504040  0.81252796    -0.29900
H215        H  0.34133250  0.48743150  0.72954294     0.14300
H216        H  0.29407884  0.99564542  0.86754553     0.14900
C217        C  0.21615936  0.00175552  0.80566707    -0.14700
C218        C  0.17245588  0.00261313  0.78171945    -0.29900
H219        H  0.20546349  0.50753020  0.85864630     0.14300
H220        H  0.16691802  0.00158851  0.72659593     0.14900
C221        C  0.98018447  0.20476505  0.80410672    -0.14700
C222        C  0.98854620  0.15989822  0.78309222    -0.29900
H223        H  0.97496478  0.21090614  0.85919929     0.14300
H224        H  0.49220181  0.14621799  0.72933614     0.14900
C225        C  0.99284967  0.33574303  0.78634985    -0.14700
C226        C  0.98581516  0.29147239  0.80633723    -0.29900
H227        H  0.99523379  0.34290714  0.73167447     0.14300
H228        H  0.48766543  0.28215763  0.85835121     0.14900
C229        C  0.39526030  0.25517789  0.73823951    -0.14700
C230        C  0.43935076  0.24822961  0.71335493    -0.29900
H231        H  0.38846548  0.25493174  0.79354096     0.14300
H232        H  0.44432995  0.24726014  0.65765197     0.14900
C233        C  0.06972561  0.24266663  0.73244932    -0.14700
C234        C  0.02589653  0.24346976  0.71016766    -0.29900
H235        H  0.07390351  0.24988673  0.78635876     0.14300
H236        H  0.02099455  0.23961416  0.65505199     0.14900
C237        C  0.24639819  0.08438480  0.72763428    -0.14700
C238        C  0.26829457  0.04245328  0.71770387    -0.29900
H239        H  0.22255583  0.08946859  0.77106639     0.14300
H240        H  0.29404142  0.03941550  0.67612095     0.14900
C241        C  0.23306912  0.41056012  0.73563662    -0.14700
C242        C  0.24092542  0.45374574  0.71183713    -0.29900
H243        H  0.23275080  0.40551228  0.79043755     0.14300
H244        H  0.24286869  0.45753734  0.65622884     0.14900
C245        C  0.42705846  0.15614420  0.46442062    -0.14700
C246        C  0.43346080  0.15469074  0.39542983    -0.29900
H247        H  0.44448386  0.13114190  0.49652937     0.14300
H248        H  0.41203156  0.17602666  0.36318731     0.14900
C249        C  0.13823815  0.06076679  0.47941459    -0.14700
C250        C  0.14372043  0.04489580  0.41381593    -0.29900
H251        H  0.10639455  0.05366232  0.50750621     0.14300
H252        H  0.17239276  0.05691215  0.38250216     0.14900
C253        C  0.05216520  0.35710323  0.57184030    -0.14700
C254        C  0.06141891  0.39421818  0.61252452    -0.29900
H255        H  0.02168658  0.35749088  0.54068361     0.14300
H256        H  0.09226028  0.39305812  0.64298192     0.14900
C257        C  0.32285884  0.44407052  0.52402877    -0.14700
C258        C  0.34852011  0.45092751  0.46814832    -0.29900
H259        H  0.32807435  0.46310003  0.57210305     0.14300
H260        H  0.34202593  0.43178951  0.42039256     0.14900
C261        C  0.08070984  0.24958839  0.29130408    -0.14700
C262        C  0.03612711  0.25474683  0.31414737    -0.29900
H263        H  0.08846314  0.24929930  0.23623463     0.14300
H264        H  0.03011208  0.25657349  0.36962463     0.14900
C265        C  0.44936898  0.26034087  0.31650822    -0.14700
C266        C  0.40477660  0.26230274  0.29592308    -0.29900
H267        H  0.45459491  0.26289600  0.37167255     0.14300
H268        H  0.39796346  0.25868213  0.24133530     0.14900
C269        C  0.23463146  0.45340628  0.30561960    -0.14700
C270        C  0.22891305  0.40836041  0.28539847    -0.29900
H271        H  0.23480307  0.46000810  0.36089386     0.14300
H272        H  0.23036136  0.39964586  0.23063102     0.14900
C273        C  0.26170314  0.08721978  0.28474599    -0.14700
C274        C  0.25940055  0.04280530  0.30765447    -0.29900
H275        H  0.26278682  0.09345428  0.22972535     0.14300
H276        H  0.25642075  0.03840385  0.36298483     0.14900
O277        O  0.25560967  0.66628429  0.30989044    -0.78400
O278        O  0.25465997  0.66678223  0.70665991    -0.80000
O279        O  0.35092337  0.63129002  0.49551757    -0.77000
O280        O  0.20439579  0.60729115  0.50315930    -0.75400
O281        O  0.14000927  0.65457905  0.50680567    -0.77200
O282        O  0.39545120  0.69591823  0.49316973    -0.78100
O283        O  0.26673847  0.61408737  0.61740495    -0.79400
O284        O  0.26709535  0.61372038  0.39536477    -0.79700
Eu285      Eu  0.26983201  0.65586532  0.50705704     2.39200
O286        O  0.21563120  0.69519873  0.57989277    -0.87200
O287        O  0.30690534  0.70881426  0.43546592    -0.90800
C288        C  0.25974880  0.62392287  0.33193193     1.03900
C289        C  0.25962128  0.62449439  0.68210372     1.03700
C290        C  0.38964078  0.65194978  0.48882552     1.03600
C291        C  0.16099928  0.61490193  0.50196148     1.01500
H292        H  0.32840589  0.68974471  0.60711037     0.31200
O293        O  0.30645102  0.70746126  0.58142682    -0.99600
H294        H  0.19969477  0.67428693  0.40991004     0.31300
O295        O  0.21702423  0.69570095  0.43747522    -1.02200
O296        O  0.25221168  0.82818116  0.70884148    -0.79400
O297        O  0.25273126  0.82765877  0.31206048    -0.78900
O298        O  0.38366772  0.76101593  0.62014031    -0.77400
O299        O  0.11874294  0.72821288  0.61615635    -0.80700
O300        O  0.12263614  0.73926209  0.40069707    -0.78600
O301        O  0.38608969  0.76316647  0.39870197    -0.77200
O302        O  0.29811096  0.89186882  0.50886644    -0.78700
O303        O  0.15869642  0.86555069  0.53370301    -0.80700
O304        O  0.36195938  0.84413177  0.50669137    -0.77400
O305        O  0.11333496  0.80174431  0.53218737    -0.80100
O306        O  0.33100897  0.74968608  0.70792909    -0.75800
O307        O  0.33592868  0.74963666  0.31179262    -0.75800
O308        O  0.17540671  0.74697484  0.31221294    -0.75500
O309        O  0.16890999  0.73800080  0.70416281    -0.79000
O310        O  0.24571446  0.88046328  0.62189790    -0.78400
O311        O  0.23857259  0.88029488  0.40081250    -0.76700
Eu312      Eu  0.25175742  0.74665812  0.65674780     2.39800
Eu313      Eu  0.25466219  0.74746294  0.36282728     2.39600
Eu314      Eu  0.34341592  0.76147982  0.50955886     2.38400
Eu315      Eu  0.16347561  0.73498687  0.51038406     2.39900
Eu316      Eu  0.23721577  0.83870280  0.51190679     2.39800
O317        O  0.19973774  0.78789606  0.43673877    -0.91100
O318        O  0.28909995  0.79939659  0.58259169    -0.90000
C319        C  0.25103151  0.87047796  0.68568822     1.04000
C320        C  0.24694040  0.87005272  0.33628374     1.02700
C321        C  0.37300982  0.75481897  0.68444181     1.02100
C322        C  0.12759961  0.73200751  0.68044003     1.04100
C323        C  0.13329340  0.74438544  0.33623337     1.03100
C324        C  0.37719377  0.75609156  0.33451616     1.01900
C325        C  0.34140662  0.88425711  0.50607982     1.02000
C326        C  0.11994061  0.84543706  0.54049776     1.04600
H327        H  0.30826627  0.82091155  0.41125899     0.32000
O328        O  0.29127810  0.79924324  0.43866045    -1.03300
H329        H  0.17907590  0.80319765  0.61660010     0.34000
O330        O  0.20035575  0.78660200  0.58559336    -1.05900
N331        N  0.53856120  0.54266577  0.36249104    -0.34900
N332        N  0.43376743  0.04802318  0.43240458    -0.55500
N333        N  0.46998181  0.97133843  0.49273534    -0.34900
N334        N  0.04913793  0.97437119  0.41278173    -0.55500
C335        C  0.51605122  0.58417073  0.35929653     0.28700
C336        C  0.06932418  0.54717158  0.36499875     0.28700
C337        C  0.43761332  0.98664115  0.53895577     0.28700
C338        C  0.99211755  0.93784039  0.51831742     0.28700
C339        C  0.43879221  0.55371640  0.35892097     0.37300
C340        C  0.39469195  0.03144681  0.45899125     0.37300
C341        C  0.10050084  0.48494515  0.43654394     0.37300
C342        C  0.05236859  0.92920630  0.42882948     0.37300
C343        C  0.54664899  0.62015870  0.35884505    -0.20200
C344        C  0.06914436  0.59387922  0.34832087    -0.20200
C345        C  0.44356611  0.96392057  0.60069651    -0.20200
C346        C  0.97398171  0.93241689  0.58435944    -0.20200
C347        C  0.39248243  0.56149923  0.34695936    -0.21200
C348        C  0.35773292  0.04656143  0.42176592    -0.21200
C349        C  0.13826473  0.46249806  0.46395788    -0.21200
C350        C  0.09333558  0.91016172  0.40149509    -0.21200
C351        C  0.46854207  0.59056993  0.36575533    -0.16600
C352        C  0.10572987  0.52490951  0.39806793    -0.16600
C353        C  0.02630170  0.91083073  0.48413173    -0.16600
C354        C  0.39485748  0.00177531  0.51512808    -0.16600
H355        H  0.53893206  0.65705015  0.36075938     0.16300
H356        H  0.09741862  0.61769983  0.35075968     0.16300
H357        H  0.42033794  0.96510142  0.64522057     0.16300
H358        H  0.98439726  0.90712414  0.62177951     0.16300
H359        H  0.37728976  0.59141186  0.32243519     0.12600
H360        H  0.32185924  0.03998343  0.43235489     0.14600
H361        H  0.17372064  0.46470601  0.44647976     0.14600
H362        H  0.10697748  0.87530203  0.40799861     0.14600
H363        H  0.52444892  0.50978490  0.36652810     0.27900
H364        H  0.46745762  0.97348791  0.43932909     0.27900
O365        O  0.50681534  0.91435001  0.81620550    -0.78400
O366        O  0.51326209  0.92186762  0.21456217    -0.80000
O367        O  0.10315376  0.88087293  0.99775538    -0.77000
O368        O  0.44233184  0.86840826  0.04771963    -0.75400
O369        O  0.38600486  0.92488832  0.05199906    -0.77200
O370        O  0.15185088  0.94202325  0.99363361    -0.78100
O371        O  0.51559953  0.86776078  0.12608185    -0.79400
O372        O  0.50821201  0.86210953  0.90392681    -0.79700
Eu373      Eu  0.51343866  0.90603167  0.01462852     2.39200
O374        O  0.46909926  0.95599953  0.08589266    -0.87200
O375        O  0.06178870  0.96023528  0.93676601    -0.90800
C376        C  0.50677502  0.87210118  0.83917575     1.03900
C377        C  0.51408008  0.87902924  0.19084387     1.03700
C378        C  0.14322841  0.89870730  0.98990392     1.03600
C379        C  0.40105262  0.88331525  0.06137848     1.01500
H380        H  0.08639543  0.94128050  0.10992733     0.31200
O381        O  0.06506938  0.95982002  0.08423248    -0.99600
H382        H  0.44331807  0.92831713  0.92040771     0.31300
O383        O  0.46320964  0.94902767  0.94495177    -1.02200
O384        O  0.49112320  0.58079963  0.20196227    -0.79400
O385        O  0.49121756  0.57298006  0.80732037    -0.78900
O386        O  0.14614891  0.01079932  0.11694929    -0.77400
O387        O  0.37948045  0.99674836  0.13059487    -0.80700
O388        O  0.36095452  0.48142834  0.89967580    -0.78600
O389        O  0.12542053  0.51299855  0.89684814    -0.77200
O390        O  0.03971061  0.64496951  0.99786336    -0.78700
O391        O  0.40459680  0.61555781  0.01400295    -0.80700
O392        O  0.10414835  0.59793635  0.99863376    -0.77400
O393        O  0.35678999  0.55366552  0.02042515    -0.80100
O394        O  0.09369470  0.00598529  0.20661019    -0.75800
O395        O  0.07398410  0.49977288  0.81138073    -0.75800
O396        O  0.41374779  0.49159469  0.81171566    -0.75500
O397        O  0.43179480  0.99850633  0.21679028    -0.79000
O398        O  0.48481983  0.63244054  0.11410078    -0.78400
O399        O  0.48540564  0.62689311  0.89574166    -0.76700
Eu400      Eu  0.51245650  0.00168488  0.16093254     2.39800
Eu401      Eu  0.49399103  0.49359336  0.86072389     2.39600
Eu402      Eu  0.10355799  0.00966745  0.00855908     2.38400
Eu403      Eu  0.41825376  0.99843801  0.01927322     2.39900
Eu404      Eu  0.48247525  0.58655794  0.00659901     2.39800
O405        O  0.44210927  0.53608613  0.93514960    -0.91100
O406        O  0.03157547  0.55621282  0.08152766    -0.90000
C407        C  0.48904930  0.62296011  0.17827803     1.04000
C408        C  0.48906256  0.61573227  0.83091213     1.02700
C409        C  0.13560061  0.00795265  0.18186389     1.02100
C410        C  0.38973990  0.99667787  0.19461629     1.04100
C411        C  0.37162561  0.48685176  0.83506693     1.03100
C412        C  0.11574251  0.50564778  0.83303678     1.01900
C413        C  0.08284464  0.63761878  0.99308688     1.02000
C414        C  0.36518566  0.59709415  0.02119938     1.04600
H415        H  0.04837330  0.57217165  0.90687972     0.32000
O416        O  0.03152622  0.55134943  0.93634557    -1.03300
H417        H  0.42132858  0.55571870  0.11001310     0.34000
O418        O  0.44254705  0.53747507  0.08086070    -1.05900
N419        N  0.27408082  0.79837425  0.95381086    -0.34900
N420        N  0.20749164  0.76152037  0.85289646    -0.55500
N421        N  0.21304821  0.68625045  0.96441045    -0.34900
N422        N  0.27044539  0.72989138  0.05341138    -0.55500
C423        C  0.27223334  0.82397237  0.89689084     0.28700
C424        C  0.31715014  0.80014002  0.97676150     0.28700
C425        C  0.19663747  0.67139286  0.90404607     0.28700
C426        C  0.22909950  0.64893912  0.99746915     0.28700
C427        C  0.19942287  0.80759064  0.84797949     0.37300
C428        C  0.16587245  0.74234539  0.85912642     0.37300
C429        C  0.30426795  0.75390754  0.08118055     0.37300
C430        C  0.26121625  0.69377136  0.09344386     0.37300
C431        C  0.31450512  0.84274695  0.88216564    -0.20200
C432        C  0.34353270  0.82664015  0.93190766    -0.20200
C433        C  0.20188373  0.62344984  0.89835721    -0.20200
C434        C  0.22371718  0.60920400  0.95664305    -0.20200
C435        C  0.15261243  0.81683857  0.84246530    -0.21200
C436        C  0.13128508  0.77569541  0.85403304    -0.21200
C437        C  0.31487449  0.73573179  0.14422262    -0.21200
C438        C  0.28742838  0.69743573  0.15229212    -0.21200
C439        C  0.23042217  0.84022973  0.87336052    -0.16600
C440        C  0.33037688  0.78488117  0.04244161    -0.16600
C441        C  0.25128180  0.65092601  0.06120937    -0.16600
C442        C  0.16018061  0.69596346  0.87654688    -0.16600
H443        H  0.32281490  0.86746434  0.84264362     0.16300
H444        H  0.37910903  0.83598210  0.93694408     0.16300
H445        H  0.18723998  0.60097022  0.85968603     0.16300
H446        H  0.23233399  0.57361916  0.96928731     0.16300
H447        H  0.13552160  0.85064868  0.84208873     0.14600
H448        H  0.09477241  0.77160611  0.86286679     0.14600
H449        H  0.34301944  0.74530671  0.17615653     0.14600
H450        H  0.29263164  0.67069263  0.18981256     0.14600
H451        H  0.24500557  0.78727902  0.98044872     0.27900
H452        H  0.20600511  0.71925494  0.98586735     0.27900
C453        C  0.00680399  0.75444120  0.26176390    -0.00800
C454        C  0.25958319  0.99812218  0.26217693    -0.00800
C455        C  0.00001682  0.74839088  0.75787661    -0.00800
C456        C  0.26150319  0.99876245  0.76222101    -0.00800
C457        C  0.21912270  0.00092415  0.21184787    -0.14700
C458        C  0.17424877  0.00588785  0.23152892    -0.29900
H459        H  0.22688870  0.99902061  0.15678452     0.14300
H460        H  0.14681751  0.50549263  0.28510829     0.14900
C461        C  0.34895053  0.99480407  0.24406411    -0.14700
C462        C  0.30523117  0.99476213  0.21979082    -0.29900
H463        H  0.33571164  0.48324586  0.28722501     0.14300
H464        H  0.30183813  0.99435195  0.16422827     0.14900
C465        C  0.51233370  0.83909136  0.24011070    -0.14700
C466        C  0.01009361  0.79715312  0.21491750    -0.29900
H467        H  0.01482778  0.85028832  0.29162738     0.14300
H468        H  0.51159113  0.78879364  0.16064460     0.14900
C469        C  0.49155998  0.66356727  0.22803648    -0.14700
C470        C  0.00758259  0.70980215  0.21567447    -0.29900
H471        H  0.95980227  0.66923072  0.27145834     0.14300
H472        H  0.51223485  0.71188065  0.15541826     0.14900
C473        C  0.18122633  0.86759434  0.96953859    -0.14700
C474        C  0.20931116  0.87853651  0.91597073    -0.29900
H475        H  0.17874034  0.83166361  0.98529784     0.14300
H476        H  0.20934812  0.91349628  0.89577356     0.14900
C477        C  0.36713265  0.85085348  0.08684543    -0.14700
C478        C  0.37130265  0.80558019  0.07115544    -0.29900
H479        H  0.33311021  0.86547420  0.09995378     0.14300
H480        H  0.40433046  0.79041097  0.05439769     0.14900
C481        C  0.28831610  0.61642118  0.06440501    -0.14700
C482        C  0.32725854  0.62842388  0.03162747    -0.29900
H483        H  0.28262498  0.58185303  0.08423027     0.14300
H484        H  0.33135932  0.66315442  0.01127910     0.14900
C485        C  0.10878524  0.67644024  0.97024235    -0.14700
C486        C  0.11534354  0.68041228  0.90178726    -0.29900
H487        H  0.13031537  0.69376018  0.00714583     0.14300
H488        H  0.09476436  0.66045437  0.86626676     0.14900
C489        C  0.33268651  0.48855467  0.78437411    -0.14700
C490        C  0.28754027  0.49364390  0.80490621    -0.29900
H491        H  0.35702099  0.99221837  0.73954209     0.14300
H492        H  0.28073270  0.49594178  0.86016599     0.14900
C493        C  0.20068070  0.50410894  0.80349128    -0.14700
C494        C  0.15620173  0.50317738  0.78218564    -0.29900
H495        H  0.21967913  0.00240669  0.86121861     0.14300
H496        H  0.14964389  0.49867733  0.72763105     0.14900
C497        C  0.99557454  0.70455731  0.80306633    -0.14700
C498        C  0.98843433  0.65993644  0.78154050    -0.29900
H499        H  0.99961502  0.70980719  0.85806952     0.14300
H500        H  0.49283197  0.64724713  0.72583928     0.14900
C501        C  0.00940557  0.83658141  0.78623639    -0.14700
C502        C  0.00430121  0.79176037  0.80649272    -0.29900
H503        H  0.00960339  0.84392146  0.73154269     0.14300
H504        H  0.50286722  0.78110021  0.86202029     0.14900
C505        C  0.41218812  0.75212565  0.73403282    -0.14700
C506        C  0.45709788  0.74866929  0.71193479    -0.29900
H507        H  0.40409789  0.75126118  0.78895300     0.14300
H508        H  0.46353980  0.74860448  0.65653292     0.14900
C509        C  0.08639839  0.73011620  0.72879581    -0.14700
C510        C  0.04365570  0.74439462  0.71013540    -0.29900
H511        H  0.09053485  0.71619487  0.77921560     0.14300
H512        H  0.04045122  0.75646246  0.65772708     0.14900
C513        C  0.25606981  0.58499384  0.73154311    -0.14700
C514        C  0.25050207  0.54024924  0.70999915    -0.29900
H515        H  0.25692533  0.59282433  0.78636343     0.14300
H516        H  0.24955777  0.53390819  0.65464657     0.14900
C517        C  0.25611550  0.91095606  0.73506219    -0.14700
C518        C  0.26032710  0.95553436  0.71383074    -0.29900
H519        H  0.25629114  0.90468149  0.78964167     0.14300
H520        H  0.26155784  0.96153596  0.65866274     0.14900
C521        C  0.42929579  0.62321270  0.46823184    -0.14700
C522        C  0.45025756  0.63108777  0.40702601    -0.29900
H523        H  0.43229137  0.58917263  0.49125392     0.14300
H524        H  0.44505906  0.66415390  0.38208759     0.14900
C525        C  0.13385124  0.57588083  0.48486621    -0.14700
C526        C  0.14149277  0.55524830  0.42299702    -0.29900
H527        H  0.10296907  0.56933265  0.51567067     0.14300
H528        H  0.16880824  0.56604028  0.38803634     0.14900
C529        C  0.08034744  0.87538625  0.55486449    -0.14700
C530        C  0.04370343  0.86920033  0.51653974    -0.29900
H531        H  0.08682586  0.90986499  0.57638409     0.14300
H532        H  0.03891229  0.83636076  0.48906934     0.14900
C533        C  0.37037181  0.92358430  0.49909781    -0.14700
C534        C  0.35848376  0.96725898  0.51967815    -0.29900
H535        H  0.40449265  0.91535523  0.47788587     0.14300
H536        H  0.32412614  0.97685604  0.53889445     0.14900
C537        C  0.09415321  0.74809294  0.28684760    -0.14700
C538        C  0.04920639  0.75189268  0.30872849    -0.29900
H539        H  0.10231715  0.74820887  0.23190840     0.14300
H540        H  0.04256552  0.75250202  0.36409273     0.14900
C541        C  0.46202045  0.75395776  0.30607369    -0.14700
C542        C  0.41785403  0.75448587  0.28429935    -0.29900
H543        H  0.46661055  0.75542639  0.36143097     0.14300
H544        H  0.41192702  0.75192831  0.22945473     0.14900
C545        C  0.25414286  0.95515537  0.30896657    -0.14700
C546        C  0.25173062  0.90990872  0.28703256    -0.29900
H547        H  0.25157467  0.96163522  0.36431121     0.14300
H548        H  0.25492260  0.90189472  0.23214628     0.14900
C549        C  0.25406959  0.58383404  0.28186386    -0.14700
C550        C  0.24713018  0.53979317  0.30391417    -0.29900
H551        H  0.25409100  0.59058394  0.22699876     0.14300
H552        H  0.24628032  0.53507995  0.35932600     0.14900
O553        O  0.75150429  0.16649344  0.30897725    -0.78400
O554        O  0.74399762  0.16440121  0.70362067    -0.80000
O555        O  0.84860074  0.14604509  0.49490643    -0.77000
O556        O  0.70681156  0.09722354  0.49471455    -0.75400
O557        O  0.63754152  0.13635094  0.50497188    -0.77200
O558        O  0.88488169  0.21601169  0.49999967    -0.78100
O559        O  0.76500128  0.11315597  0.61564234    -0.79400
O560        O  0.76782462  0.11559928  0.39455622    -0.79700
Eu561      Eu  0.76390406  0.15633396  0.50718398     2.39200
O562        O  0.70504800  0.18804971  0.58131550    -0.87200
O563        O  0.79539260  0.21510023  0.44047798    -0.90800
C564        C  0.76056011  0.12487732  0.33090271     1.03900
C565        C  0.75476650  0.12287483  0.67963026     1.03700
C566        C  0.88439941  0.17199601  0.49123719     1.03600
C567        C  0.66277820  0.09914510  0.49524462     1.01500
H568        H  0.81671854  0.19638201  0.60800559     0.31200
O569        O  0.79339930  0.21227730  0.58247037    -0.99600
H570        H  0.69283357  0.16669346  0.40827661     0.31300
O571        O  0.70696609  0.18960197  0.43718189    -1.02200
O572        O  0.73353640  0.32655588  0.70830138    -0.79400
O573        O  0.73325748  0.32460189  0.31274346    -0.78900
O574        O  0.86482199  0.26956662  0.62572006    -0.77400
O575        O  0.60338885  0.21944077  0.61854715    -0.80700
O576        O  0.60979109  0.23072728  0.40093602    -0.78600
O577        O  0.87167072  0.27735705  0.40881881    -0.77200
O578        O  0.76186507  0.39646740  0.51353114    -0.78700
O579        O  0.62682104  0.34597363  0.53074744    -0.80700
O580        O  0.83040032  0.35749106  0.52532692    -0.77400
O581        O  0.58724739  0.27844311  0.53041901    -0.80100
O582        O  0.81323272  0.25095546  0.71142898    -0.75800
O583        O  0.82394201  0.25387429  0.32393232    -0.75800
O584        O  0.66215516  0.24408868  0.31371634    -0.75500
O585        O  0.65244995  0.23923750  0.70395144    -0.79000
O586        O  0.71784579  0.37773123  0.62253770    -0.78400
O587        O  0.71153151  0.37619919  0.39976376    -0.76700
Eu588      Eu  0.73502815  0.24491703  0.65724648     2.39800
Eu589      Eu  0.74080128  0.24610374  0.36558431     2.39600
Eu590      Eu  0.82466337  0.27226294  0.51541646     2.38400
Eu591      Eu  0.64881347  0.22126757  0.51119449     2.39900
Eu592      Eu  0.70999069  0.33481734  0.51189153     2.39800
O593        O  0.68072421  0.27803285  0.43864712    -0.91100
O594        O  0.76516421  0.30268140  0.58512038    -0.90000
C595        C  0.72813761  0.36855803  0.68530720     1.04000
C596        C  0.72326788  0.36639577  0.33600419     1.02700
C597        C  0.85482682  0.25934509  0.68884229     1.02100
C598        C  0.61146306  0.23066578  0.68154121     1.04100
C599        C  0.62021881  0.23974092  0.33752246     1.03100
C600        C  0.86418822  0.26546525  0.34568853     1.01900
C601        C  0.80495784  0.39485714  0.52246295     1.02000
C602        C  0.58979662  0.32262036  0.53857767     1.04600
H603        H  0.78562243  0.32677730  0.41532541     0.32000
O604        O  0.77026805  0.30304149  0.44127529    -1.03300
H605        H  0.65772524  0.29405169  0.61397475     0.34000
O606        O  0.68033866  0.27826475  0.58435027    -1.05900
N607        N  0.02460206  0.06233016  0.35323950    -0.34900
N608        N  0.91313891  0.53391467  0.45930579    -0.55500
N609        N  0.97894315  0.48539971  0.56322930    -0.34900
N610        N  0.56266512  0.47799266  0.47248620    -0.55500
C611        C  0.00347565  0.10430041  0.36391846     0.28700
C612        C  0.56583981  0.06718860  0.36601011     0.28700
C613        C  0.93567726  0.48247769  0.58944479     0.28700
C614        C  0.48997899  0.44057532  0.56653391     0.28700
C615        C  0.92624942  0.07496759  0.36772390     0.37300
C616        C  0.90260477  0.49098600  0.47754328     0.37300
C617        C  0.58658030  0.98440628  0.37792025     0.37300
C618        C  0.57103613  0.45280329  0.52889347     0.37300
C619        C  0.03523054  0.13727355  0.38139030    -0.20200
C620        C  0.57365818  0.11409316  0.37816501    -0.20200
C621        C  0.93655850  0.46257163  0.65392948    -0.20200
C622        C  0.45770411  0.41356217  0.59882089    -0.20200
C623        C  0.87886111  0.07830420  0.35973702    -0.21200
C624        C  0.91155178  0.45936954  0.42350345    -0.21200
C625        C  0.61654131  0.94632657  0.37360935    -0.21200
C626        C  0.61756583  0.44283773  0.53260142    -0.21200
C627        C  0.95573737  0.11233363  0.36284943    -0.16600
C628        C  0.59885718  0.03105437  0.37453206    -0.16600
C629        C  0.53733779  0.43159415  0.57026037    -0.16600
C630        C  0.89785676  0.47882471  0.54645548    -0.16600
H631        H  0.02875293  0.17363601  0.39399894     0.16300
H632        H  0.60606805  0.13043591  0.38701213     0.16300
H633        H  0.90746214  0.45198213  0.68519012     0.16300
H634        H  0.46332181  0.38647585  0.63574499     0.16300
H635        H  0.86071717  0.10373428  0.32969507     0.12600
H636        H  0.90989074  0.42181802  0.42527753     0.14600
H637        H  0.65244333  0.94568182  0.35785284     0.14600
H638        H  0.63551467  0.42600304  0.57364800     0.14600
H639        H  0.00884828  0.03128413  0.33966638     0.27900
H640        H  0.98720557  0.49570010  0.51344756     0.27900
O641        O  0.99566223  0.41747421  0.81562695    -0.78400
O642        O  0.99613963  0.42538911  0.21005130    -0.80000
O643        O  0.58139631  0.37161109  0.99457505    -0.77000
O644        O  0.94280214  0.36114042  0.04331614    -0.75400
O645        O  0.88355621  0.41384024  0.04870142    -0.77200
O646        O  0.62871956  0.43367530  0.98302851    -0.78100
O647        O  0.00768529  0.37084803  0.12322253    -0.79400
O648        O  0.99986284  0.36513837  0.90225127    -0.79700
Eu649      Eu  0.00544954  0.41002939  0.01142858     2.39200
O650        O  0.95542730  0.45520019  0.08125848    -0.87200
O651        O  0.54385983  0.45363683  0.93525635    -0.90800
C652        C  0.99667917  0.37525281  0.83793630     1.03900
C653        C  0.00146909  0.38255476  0.18749372     1.03700
C654        C  0.62006321  0.39010818  0.98093075     1.03600
C655        C  0.90129858  0.37334374  0.05871003     1.01500
H656        H  0.56612968  0.43542049  0.10565893     0.31200
O657        O  0.54479129  0.45362432  0.07942190    -0.99600
H658        H  0.93390999  0.42594090  0.91487480     0.31300
O659        O  0.95200979  0.44802830  0.94001430    -1.02200
O660        O  0.01390316  0.08851548  0.20431934    -0.79400
O661        O  0.00071846  0.07910938  0.81094668    -0.78900
O662        O  0.62647616  0.50118738  0.11601061    -0.77400
O663        O  0.85990186  0.48777975  0.12286519    -0.80700
O664        O  0.87691468  0.00006196  0.90790291    -0.78600
O665        O  0.64036122  0.99896016  0.89862128    -0.77200
O666        O  0.57487198  0.13365238  0.99404917    -0.78700
O667        O  0.93483478  0.13400629  0.03991723    -0.80700
O668        O  0.63183910  0.07771998  0.98976663    -0.77400
O669        O  0.88373010  0.07513213  0.04852411    -0.80100
O670        O  0.57286526  0.49975321  0.20465125    -0.75800
O671        O  0.58806842  0.99605061  0.81255622    -0.75800
O672        O  0.92944317  0.99765517  0.81784826    -0.75500
O673        O  0.91174668  0.49700092  0.20882299    -0.79000
O674        O  0.00884382  0.14069964  0.11653576    -0.78400
O675        O  0.99413185  0.13354620  0.89864920    -0.76700
Eu676      Eu  0.99325454  0.50493513  0.15715167     2.39800
Eu677      Eu  0.01014826  0.00080259  0.86477532     2.39600
Eu678      Eu  0.58461644  0.50443374  0.00655118     2.38400
Eu679      Eu  0.90140229  0.49205871  0.01320668     2.39900
Eu680      Eu  0.00641172  0.09570028  0.00963307     2.39800
O681        O  0.96103416  0.04825313  0.93892134    -0.91100
O682        O  0.55429062  0.05017560  0.08442586    -0.90000
C683        C  0.01159992  0.13075650  0.18058396     1.04000
C684        C  0.99451975  0.12162289  0.83402139     1.02700
C685        C  0.61528226  0.50008809  0.18099357     1.02100
C686        C  0.87004346  0.49101778  0.18694862     1.04100
C687        C  0.88722902  0.99847400  0.84244886     1.03100
C688        C  0.63023996  0.99737306  0.83446610     1.01900
C689        C  0.61640759  0.11943236  0.98315834     1.02000
C690        C  0.89561714  0.11795876  0.05675344     1.04600
H691        H  0.56840700  0.06380840  0.90598962     0.32000
O692        O  0.55106514  0.04477342  0.93734546    -1.03300
H693        H  0.94859689  0.06481122  0.11868983     0.34000
O694        O  0.96703970  0.04675020  0.08540106    -1.05900
N695        N  0.75790591  0.31455536  0.97443438    -0.34900
N696        N  0.72863472  0.25026156  0.86189947    -0.55500
N697        N  0.74964474  0.18310245  0.97846243    -0.34900
N698        N  0.76638382  0.24874851  0.08217027    -0.55500
C699        C  0.75391764  0.33912416  0.91643345     0.28700
C700        C  0.78004023  0.34091472  0.02025449     0.28700
C701        C  0.74793848  0.16080730  0.91697882     0.28700
C702        C  0.77287138  0.15547082  0.02081723     0.28700
C703        C  0.70197297  0.28891809  0.85595069     0.37300
C704        C  0.69968296  0.21436857  0.85694129     0.37300
C705        C  0.77957032  0.28606817  0.11838986     0.37300
C706        C  0.77597949  0.21117497  0.11960304     0.37300
C707        C  0.77451265  0.38177044  0.92499019    -0.20200
C708        C  0.79071069  0.38306159  0.99058561    -0.20200
C709        C  0.76983766  0.11773416  0.92060453    -0.20200
C710        C  0.78589543  0.11448216  0.98581114    -0.20200
C711        C  0.65693554  0.27740896  0.84352693    -0.21200
C712        C  0.65559282  0.23003554  0.84559403    -0.21200
C713        C  0.79423410  0.27273310  0.18219410    -0.21200
C714        C  0.79230401  0.22499261  0.18291241    -0.21200
C715        C  0.71550744  0.33356363  0.87643256    -0.16600
C716        C  0.79114019  0.32819145  0.08790943    -0.16600
C717        C  0.78405125  0.16682273  0.08933256    -0.16600
C718        C  0.71055297  0.16886930  0.87619260    -0.16600
H719        H  0.77216202  0.41125936  0.89157670     0.16300
H720        H  0.80431936  0.41347676  0.01558886     0.16300
H721        H  0.76954148  0.08907422  0.88414409     0.16300
H722        H  0.80240920  0.08391233  0.00616403     0.16300
H723        H  0.62742043  0.30071612  0.84017166     0.14600
H724        H  0.62524276  0.20912294  0.84520119     0.14600
H725        H  0.81024481  0.29498721  0.21964854     0.14600
H726        H  0.80727800  0.20269285  0.22084384     0.14600
H727        H  0.73906699  0.28526798  0.98507525     0.27900
H728        H  0.72828549  0.21115144  0.99327113     0.27900
C729        C  0.49295618  0.25282384  0.26859348    -0.00800
C730        C  0.74113968  0.49303733  0.26060282    -0.00800
C731        C  0.48317850  0.24307636  0.75677806    -0.00800
C732        C  0.74591956  0.49774276  0.75686603    -0.00800
C733        C  0.69933180  0.49841414  0.21234988    -0.14700
C734        C  0.65393980  0.49800883  0.23175209    -0.29900
H735        H  0.70690937  0.50131514  0.15751396     0.14300
H736        H  0.66667178  0.00337388  0.28327590     0.14900
C737        C  0.82985522  0.48928676  0.23758907    -0.14700
C738        C  0.78566252  0.48646456  0.21555300    -0.29900
H739        H  0.85523714  0.99241487  0.29351523     0.14300
H740        H  0.78113353  0.48248957  0.16038482     0.14900
C741        C  0.99944591  0.34375102  0.23853922    -0.14700
C742        C  0.49652335  0.29295275  0.21764288    -0.29900
H743        H  0.49972316  0.34816347  0.29071823     0.14300
H744        H  0.99739481  0.28981202  0.16377121     0.14900
C745        C  0.01505653  0.17147579  0.22889564    -0.14700
C746        C  0.48773630  0.20684861  0.22656778    -0.29900
H747        H  0.54397274  0.16687088  0.26263356     0.14300
H748        H  0.96156012  0.21076855  0.18721537     0.14900
C749        C  0.65615852  0.35896259  0.95681646    -0.14700
C750        C  0.67879993  0.36690357  0.89731082    -0.29900
H751        H  0.66148832  0.32669524  0.98411261     0.14300
H752        H  0.67237902  0.39799850  0.86782630     0.14900
C753        C  0.87116716  0.33888467  0.08838654    -0.14700
C754        C  0.83017567  0.35271460  0.11580345    -0.29900
H755        H  0.87705755  0.30284425  0.07156349     0.14300
H756        H  0.82412030  0.38873939  0.13236124     0.14900
C757        C  0.82237337  0.13882823  0.11450730    -0.14700
C758        C  0.86305502  0.15156326  0.08830107    -0.29900
H759        H  0.81630071  0.10248438  0.12532150     0.14300
H760        H  0.86862587  0.18797258  0.07659289     0.14900
C761        C  0.64781859  0.15179165  0.95407572    -0.14700
C762        C  0.67238777  0.13939801  0.89664272    -0.29900
H763        H  0.65047205  0.18602596  0.97831496     0.14300
H764        H  0.66925345  0.10526983  0.87218747     0.14900
C765        C  0.84812765  0.99749007  0.79169403    -0.14700
C766        C  0.80249850  0.99992450  0.81089526    -0.29900
H767        H  0.84199157  0.49375043  0.73216489     0.14300
H768        H  0.79497909  0.00294838  0.86592944     0.14900
C769        C  0.71513300  0.99985741  0.80652225    -0.14700
C770        C  0.67091592  0.99723685  0.78405619    -0.29900
H771        H  0.70533005  0.50645562  0.85721568     0.14300
H772        H  0.66491685  0.99398650  0.72919563     0.14900
C773        C  0.48034643  0.20023421  0.80394168    -0.14700
C774        C  0.48736896  0.15490017  0.78381872    -0.29900
H775        H  0.47583713  0.20710004  0.85898956     0.14300
H776        H  0.99392536  0.15175650  0.72852874     0.14900
C777        C  0.49280229  0.33109655  0.78060845    -0.14700
C778        C  0.48787943  0.28697876  0.80296426    -0.29900
H779        H  0.49300506  0.33756394  0.72570181     0.14300
H780        H  0.98332893  0.28608367  0.86154089     0.14900
C781        C  0.89450387  0.25546970  0.73733299    -0.14700
C782        C  0.93912766  0.25223831  0.71366779    -0.29900
H783        H  0.88710370  0.25361314  0.79234787     0.14300
H784        H  0.94481473  0.25283053  0.65812722     0.14900
C785        C  0.57022740  0.23616901  0.72999482    -0.14700
C786        C  0.52620318  0.23735578  0.70822674    -0.29900
H787        H  0.57504673  0.24269669  0.78411550     0.14300
H788        H  0.52090944  0.23388734  0.65316684     0.14900
C789        C  0.75431183  0.08367217  0.72942607    -0.14700
C790        C  0.76157525  0.03817798  0.71110146    -0.29900
H791        H  0.74497825  0.09240190  0.78217727     0.14300
H792        H  0.76810525  0.02983320  0.65674981     0.14900
C793        C  0.73520427  0.40941003  0.73352156    -0.14700
C794        C  0.74242435  0.45320300  0.71072612    -0.29900
H795        H  0.73517684  0.40360526  0.78821535     0.14300
H796        H  0.74407481  0.45737355  0.65518931     0.14900
C797        C  0.92710633  0.15078231  0.46636949    -0.14700
C798        C  0.93713398  0.15430184  0.39850868    -0.29900
H799        H  0.94133104  0.12223206  0.49550719     0.14300
H800        H  0.91870867  0.17928313  0.36784328     0.14900
C801        C  0.63916195  0.05712470  0.47456128    -0.14700
C802        C  0.64190843  0.04445880  0.40735431    -0.29900
H803        H  0.60892400  0.04795448  0.50508180     0.14300
H804        H  0.66856356  0.05895244  0.37444359     0.14900
C805        C  0.54812825  0.34921786  0.55839392    -0.14700
C806        C  0.55198690  0.38693330  0.59985268    -0.29900
H807        H  0.51999154  0.34709671  0.52279686     0.14300
H808        H  0.58021599  0.38797851  0.63541449     0.14900
C809        C  0.82661961  0.43920135  0.52875191    -0.14700
C810        C  0.86592226  0.44160081  0.56119095    -0.29900
H811        H  0.81271987  0.46882378  0.50150470     0.14300
H812        H  0.87781073  0.41195638  0.59037985     0.14900
C813        C  0.58081082  0.24601361  0.28958957    -0.14700
C814        C  0.53641627  0.25143356  0.31346981    -0.29900
H815        H  0.58799714  0.24515069  0.23435581     0.14300
H816        H  0.53096980  0.25412148  0.36900683     0.14900
C817        C  0.94936180  0.26328131  0.31557067    -0.14700
C818        C  0.90478259  0.26354170  0.29507174    -0.29900
H819        H  0.95439949  0.26632282  0.37073565     0.14300
H820        H  0.89793738  0.25924967  0.24059292     0.14900
C821        C  0.73434580  0.45058373  0.30795034    -0.14700
C822        C  0.72779333  0.40592474  0.28643761    -0.29900
H823        H  0.73460054  0.45682965  0.36335016     0.14300
H824        H  0.72872614  0.39782916  0.23147654     0.14900
C825        C  0.76159268  0.08419256  0.28078809    -0.14700
C826        C  0.75938818  0.03964469  0.30312619    -0.29900
H827        H  0.76285288  0.09063311  0.22586901     0.14300
H828        H  0.75575891  0.03513663  0.35836731     0.14900
O829        O  0.75687516  0.66375783  0.31070079    -0.78400
O830        O  0.75481757  0.66704302  0.70428291    -0.80000
O831        O  0.85424065  0.63738993  0.47763706    -0.77000
O832        O  0.71064890  0.60524738  0.51183472    -0.75400
O833        O  0.64464366  0.65023499  0.51390184    -0.77200
O834        O  0.89946215  0.70070667  0.49170160    -0.78100
O835        O  0.77245691  0.61410099  0.61703361    -0.79400
O836        O  0.76702375  0.61182384  0.39718903    -0.79700
Eu837      Eu  0.77311759  0.65621313  0.50667404     2.39200
O838        O  0.71811025  0.69537749  0.57832711    -0.87200
O839        O  0.80824913  0.70979551  0.43531124    -0.90800
C840        C  0.76001718  0.62152899  0.33349345     1.03900
C841        C  0.76209949  0.62467654  0.68090967     1.03700
C842        C  0.89304823  0.65830193  0.47410693     1.03600
C843        C  0.66712025  0.61120568  0.51217581     1.01500
H844        H  0.83067764  0.69115251  0.60764350     0.31200
O845        O  0.80839777  0.70838819  0.58179546    -0.99600
H846        H  0.70086950  0.67134813  0.41124671     0.31300
O847        O  0.71799318  0.69351991  0.43770203    -1.02200
O848        O  0.74364965  0.83021104  0.70314996    -0.79400
O849        O  0.75295248  0.82505606  0.30970429    -0.78900
O850        O  0.88385704  0.76415862  0.62014841    -0.77400
O851        O  0.62004772  0.72783290  0.61849897    -0.80700
O852        O  0.62218061  0.73399785  0.40028541    -0.78600
O853        O  0.88577450  0.76396090  0.39849158    -0.77200
O854        O  0.79687952  0.89110504  0.50210099    -0.78700
O855        O  0.65721063  0.86296128  0.53149139    -0.80700
O856        O  0.86203341  0.84527381  0.49744622    -0.77400
O857        O  0.61256743  0.79855926  0.53289164    -0.80100
O858        O  0.83119171  0.75231258  0.70765300    -0.75800
O859        O  0.83594770  0.75064314  0.31090678    -0.75800
O860        O  0.67491291  0.74376666  0.31223985    -0.75500
O861        O  0.67044649  0.73823402  0.70609713    -0.79000
O862        O  0.74025937  0.88224931  0.61530392    -0.78400
O863        O  0.73826681  0.87845113  0.39722727    -0.76700
Eu864      Eu  0.75234952  0.74758288  0.65550368     2.39800
Eu865      Eu  0.75460389  0.74551913  0.36202405     2.39600
Eu866      Eu  0.84391848  0.76311041  0.50953338     2.38400
Eu867      Eu  0.66364192  0.73238041  0.51017055     2.39900
Eu868      Eu  0.73621037  0.83756053  0.50867522     2.39800
O869        O  0.69871518  0.78565988  0.43495679    -0.91100
O870        O  0.78929399  0.80158721  0.58209228    -0.90000
C871        C  0.74162864  0.87233161  0.67939168     1.04000
C872        C  0.74719974  0.86761853  0.33305848     1.02700
C873        C  0.87317892  0.75777249  0.68432803     1.02100
C874        C  0.62900117  0.73220012  0.68288778     1.04100
C875        C  0.63282349  0.73959324  0.33581158     1.03100
C876        C  0.87706555  0.75762869  0.33417129     1.01900
C877        C  0.84019798  0.88460715  0.49502486     1.02000
C878        C  0.61880799  0.84241414  0.54015860     1.04600
H879        H  0.80701671  0.81927389  0.40916620     0.32000
O880        O  0.79048658  0.79776565  0.43760347    -1.03300
H881        H  0.67921777  0.80156775  0.61381485     0.34000
O882        O  0.70061772  0.78517589  0.58290237    -1.05900
N883        N  0.02663322  0.53036016  0.36132167    -0.34900
N884        N  0.93491530  0.04491651  0.41730185    -0.55500
N885        N  0.96816455  0.97025343  0.48582305    -0.34900
N886        N  0.54698907  0.97244787  0.40871597    -0.55500
C887        C  0.99847366  0.56732097  0.35081630     0.28700
C888        C  0.58288771  0.55276827  0.37146254     0.28700
C889        C  0.93373974  0.98556969  0.52824525     0.28700
C890        C  0.49499003  0.93823993  0.52211256     0.28700
C891        C  0.92993923  0.53016123  0.39423186     0.37300
C892        C  0.89485560  0.02980186  0.44245402     0.37300
C893        C  0.60372349  0.48329051  0.43995677     0.37300
C894        C  0.55158737  0.92786244  0.42728640     0.37300
C895        C  0.02416820  0.60693569  0.34254751    -0.20200
C896        C  0.58930123  0.60021965  0.36233252    -0.20200
C897        C  0.93668079  0.96293298  0.59070930    -0.20200
C898        C  0.48010880  0.93296178  0.58993077    -0.20200
C899        C  0.93014520  0.48451926  0.37038630    -0.21200
C900        C  0.85895270  0.04870869  0.40690002    -0.21200
C901        C  0.63768940  0.45904198  0.47415393    -0.21200
C902        C  0.59334633  0.90965596  0.40155304    -0.21200
C903        C  0.95091300  0.56791574  0.36421524    -0.16600
C904        C  0.61452846  0.52412168  0.40550887    -0.16600
C905        C  0.52671267  0.91014376  0.48428990    -0.16600
C906        C  0.89256125  0.00132060  0.49990677    -0.16600
H907        H  0.01205051  0.64258251  0.34332625     0.16300
H908        H  0.62056906  0.61951287  0.36810209     0.16300
H909        H  0.91133867  0.96404429  0.63259456     0.16300
H910        H  0.49196941  0.90737529  0.62593026     0.16300
H911        H  0.94465472  0.47062903  0.32222896     0.12600
H912        H  0.82281520  0.04472697  0.41841331     0.14600
H913        H  0.67442095  0.45991578  0.46406012     0.14600
H914        H  0.60829487  0.87564659  0.41040628     0.14600
H915        H  0.01706713  0.49679424  0.37393098     0.27900
H916        H  0.96825645  0.97183399  0.43214603     0.27900
O917        O  0.01071607  0.91911390  0.81377368    -0.78400
O918        O  0.01527275  0.92452303  0.21029797    -0.80000
O919        O  0.59056454  0.87244746  0.99975465    -0.77000
O920        O  0.95466370  0.86901515  0.01796793    -0.75400
O921        O  0.89391167  0.92113181  0.01427800    -0.77200
O922        O  0.64220347  0.93135220  0.99473154    -0.78100
O923        O  0.02246667  0.87041930  0.12209217    -0.79400
O924        O  0.01892753  0.86723472  0.90107392    -0.79700
Eu925      Eu  0.02359583  0.91122193  0.01178249     2.39200
O926        O  0.97300000  0.95664854  0.08317559    -0.87200
O927        O  0.55544361  0.95334990  0.94064625    -0.90800
C928        C  0.01351471  0.87689572  0.83684981     1.03900
C929        C  0.01783501  0.88169583  0.18673098     1.03700
C930        C  0.63095602  0.88871167  0.99006373     1.03600
C931        C  0.91229585  0.88014112  0.01191724     1.01500
H932        H  0.58001513  0.93495627  0.10990639     0.31200
O933        O  0.55887626  0.95397327  0.08444665    -0.99600
H934        H  0.95305723  0.93276756  0.91717329     0.31300
O935        O  0.97142689  0.95371142  0.94376480    -1.02200
O936        O  0.98597625  0.58802745  0.20309793    -0.79400
O937        O  0.98980902  0.57789525  0.80963699    -0.78900
O938        O  0.64444743  0.00379152  0.11520210    -0.77400
O939        O  0.88140332  0.99319064  0.12521094    -0.80700
O940        O  0.86000747  0.48781533  0.90292651    -0.78600
O941        O  0.62566571  0.50907327  0.89470961    -0.77200
O942        O  0.54641172  0.63437312  0.02552571    -0.78700
O943        O  0.90091060  0.61931448  0.03364744    -0.80700
O944        O  0.60855285  0.58453286  0.02494159    -0.77400
O945        O  0.85109531  0.55950610  0.03664377    -0.80100
O946        O  0.59306285  0.00159877  0.20640079    -0.75800
O947        O  0.57493056  0.49687505  0.80793178    -0.75800
O948        O  0.91328257  0.49576206  0.81497774    -0.75500
O949        O  0.93276949  0.99980242  0.21223191    -0.79000
O950        O  0.98462401  0.63913458  0.11401951    -0.78400
O951        O  0.97813327  0.63230748  0.89656371    -0.76700
Eu952      Eu  0.01425897  0.00475105  0.15847464     2.39800
Eu953      Eu  0.99259985  0.49886922  0.86466977     2.39600
Eu954      Eu  0.59950518  0.00255890  0.00955880     2.38400
Eu955      Eu  0.92180148  0.99994518  0.01565922     2.39900
Eu956      Eu  0.97886116  0.59282488  0.00853427     2.39800
O957        O  0.93886164  0.54238830  0.93663898    -0.91100
O958        O  0.53260111  0.54643141  0.07801035    -0.90000
C959        C  0.98508654  0.62992544  0.17851282     1.04000
C960        C  0.98490338  0.62077548  0.83221168     1.02700
C961        C  0.63479075  0.00232217  0.18042593     1.02100
C962        C  0.89103246  0.99520061  0.18945395     1.04100
C963        C  0.87114040  0.49164994  0.83814486     1.03100
C964        C  0.61633828  0.50325771  0.83038347     1.01900
C965        C  0.58904290  0.62513981  0.03141992     1.02000
C966        C  0.86115768  0.60235072  0.04564655     1.04600
H967        H  0.55298915  0.56650001  0.90673629     0.32000
O968        O  0.53507392  0.54511821  0.93363461    -1.03300
H969        H  0.92126135  0.56045434  0.11610741     0.34000
O970        O  0.94171087  0.54327098  0.08459272    -1.05900
N971        N  0.78830391  0.80158187  0.84605232    -0.34900
N972        N  0.71350769  0.75549300  0.91584642    -0.55500
N973        N  0.74766142  0.74723143  0.05239533    -0.34900
N974        N  0.82768838  0.75271338  0.96706185    -0.55500
C975        C  0.75590645  0.83561644  0.85255223     0.28700
C976        C  0.82844612  0.82206863  0.85681256     0.28700
C977        C  0.70924278  0.72259221  0.06047436     0.28700
C978        C  0.77683393  0.73074229  0.09900057     0.28700
C979        C  0.69418623  0.78214668  0.86828633     0.37300
C980        C  0.68051027  0.72870206  0.94111149     0.37300
C981        C  0.86086804  0.75616023  0.91759771     0.37300
C982        C  0.84638441  0.73041737  0.02011801     0.37300
C983        C  0.77606164  0.87854867  0.85984154    -0.20200
C984        C  0.82242065  0.87025089  0.85862010    -0.20200
C985        C  0.70932594  0.70102107  0.12373647    -0.20200
C986        C  0.75213178  0.70739764  0.14921185    -0.20200
C987        C  0.64879753  0.77041291  0.86094487    -0.21200
C988        C  0.64052540  0.73461430  0.90508803    -0.21200
C989        C  0.89984967  0.73196325  0.93741970    -0.21200
C990        C  0.89138774  0.71749724  0.00302697    -0.21200
C991        C  0.70920376  0.82733255  0.86166467    -0.16600
C992        C  0.86584317  0.79876517  0.88530626    -0.16600
C993        C  0.82266479  0.71762572  0.08124652    -0.16600
C994        C  0.68172317  0.70855960  0.00569221    -0.16600
H995        H  0.75919331  0.91193684  0.87026726     0.16300
H996        H  0.84783048  0.89622205  0.86930615     0.16300
H997        H  0.68444634  0.67703292  0.14402367     0.16300
H998        H  0.76627527  0.68777705  0.19070276     0.16300
H999        H  0.62294787  0.79053946  0.83483249     0.14600
H1000       H  0.60709163  0.72084810  0.91785019     0.14600
H1001       H  0.93358534  0.73356882  0.91345516     0.14600
H1002       H  0.91670675  0.70253094  0.03626477     0.14600
H1003       H  0.78335536  0.76572088  0.84318264     0.27900
H1004       H  0.75573755  0.76898913  0.01227922     0.27900
C1005       C  0.50632929  0.74991287  0.25972541    -0.00800
C1006       C  0.76036543  0.99496025  0.25741576    -0.00800
C1007       C  0.49976188  0.74381439  0.75810888    -0.00800
C1008       C  0.76054447  0.99733920  0.76188534    -0.00800
C1009       C  0.71920577  0.99662972  0.20799835    -0.14700
C1010       C  0.67433808  0.00098643  0.22884427    -0.29900
H1011       H  0.72648751  0.99424893  0.15282232     0.14300
H1012       H  0.64510500  0.49377992  0.28561428     0.14900
C1013       C  0.84991102  0.99281342  0.23852965    -0.14700
C1014       C  0.80604626  0.99243869  0.21441951    -0.29900
H1015       H  0.83604094  0.49368209  0.29226164     0.14300
H1016       H  0.80253001  0.99236923  0.15886398     0.14900
C1017       C  0.01444856  0.84227407  0.23667598    -0.14700
C1018       C  0.51063298  0.79415375  0.21621957    -0.29900
H1019       H  0.51109252  0.84638015  0.29529702     0.14300
H1020       H  0.00929700  0.79028592  0.15965673     0.14900
C1021       C  0.98276861  0.67097689  0.22682483    -0.14700
C1022       C  0.50395839  0.70698217  0.20969684    -0.29900
H1023       H  0.48225404  0.65822924  0.28081112     0.14300
H1024       H  0.03206747  0.70869650  0.17228313     0.14900
C1025       C  0.66563085  0.85712980  0.96224825    -0.14700
C1026       C  0.68071960  0.86357158  0.89709879    -0.29900
H1027       H  0.67335135  0.82556597  0.98983073     0.14300
H1028       H  0.67169146  0.89503129  0.86998457     0.14900
C1029       C  0.88515916  0.84432357  0.98457283    -0.14700
C1030       C  0.89765453  0.82839866  0.92104169    -0.29900
H1031       H  0.85197474  0.83700140  0.00846839     0.14300
H1032       H  0.92830984  0.83991832  0.89383609     0.14900
C1033       C  0.83955782  0.67315694  0.10799104    -0.14700
C1034       C  0.82603945  0.63492870  0.07319316    -0.29900
H1035       H  0.87303278  0.67320792  0.13161530     0.14300
H1036       H  0.79268024  0.63433449  0.04928715     0.14900
C1037       C  0.61729910  0.66471718  0.04311582    -0.14700
C1038       C  0.65780609  0.66528934  0.01128635    -0.29900
H1039       H  0.60255209  0.69607444  0.06800212     0.14300
H1040       H  0.67086329  0.63564293  0.98034382     0.14900
C1041       C  0.83284411  0.49226779  0.78664555    -0.14700
C1042       C  0.78745142  0.49372504  0.80580803    -0.29900
H1043       H  0.85719170  0.99445526  0.73711337     0.14300
H1044       H  0.77981380  0.49363181  0.86088579     0.14900
C1045       C  0.70109527  0.50359159  0.80188008    -0.14700
C1046       C  0.65688022  0.50271631  0.77984165    -0.29900
H1047       H  0.71922851  0.00331998  0.86180822     0.14300
H1048       H  0.65067824  0.49897575  0.72507349     0.14900
C1049       C  0.49535961  0.70012236  0.80318395    -0.14700
C1050       C  0.49208379  0.65514279  0.78083137    -0.29900
H1051       H  0.49499201  0.70589609  0.85867386     0.14300
H1052       H  0.98645877  0.65205454  0.72675269     0.14900
C1053       C  0.50459812  0.83223746  0.78753394    -0.14700
C1054       C  0.50261640  0.78708800  0.80695406    -0.29900
H1055       H  0.50410355  0.84007261  0.73301803     0.14300
H1056       H  0.00331036  0.78615327  0.86170741     0.14900
C1057       C  0.91241057  0.75446890  0.73364398    -0.14700
C1058       C  0.95734640  0.75452337  0.71208301    -0.29900
H1059       H  0.90464491  0.74834958  0.78730440     0.14300
H1060       H  0.96389107  0.75814089  0.65710843     0.14900
C1061       C  0.58777840  0.73125400  0.73213557    -0.14700
C1062       C  0.54403237  0.74012395  0.71124946    -0.29900
H1063       H  0.59277268  0.72338637  0.78557087     0.14300
H1064       H  0.53998687  0.74657444  0.65674960     0.14900
C1065       C  0.75695033  0.58532576  0.73081127    -0.14700
C1066       C  0.75208876  0.54028839  0.70951729    -0.29900
H1067       H  0.75512443  0.59367742  0.78567623     0.14300
H1068       H  0.75298328  0.53370080  0.65415654     0.14900
C1069       C  0.73866115  0.91300621  0.72793224    -0.14700
C1070       C  0.76474306  0.95126712  0.71926950    -0.29900
H1071       H  0.71336304  0.91178786  0.76951804     0.14300
H1072       H  0.79139916  0.94940106  0.67885280     0.14900
C1073       C  0.93190952  0.63245684  0.44282494    -0.14700
C1074       C  0.92683300  0.61232672  0.38051873    -0.29900
H1075       H  0.96122882  0.62400848  0.47411755     0.14300
H1076       H  0.89616132  0.62004733  0.35163135     0.14900
C1077       C  0.64193620  0.57044604  0.49776984    -0.14700
C1078       C  0.65173544  0.54928748  0.43678980    -0.29900
H1079       H  0.60947428  0.56508265  0.52528997     0.14300
H1080       H  0.68003386  0.56027942  0.40415616     0.14900
C1081       C  0.57915563  0.87209087  0.55522849    -0.14700
C1082       C  0.54350179  0.86740777  0.51450764    -0.29900
H1083       H  0.58541222  0.90586523  0.57929953     0.14300
H1084       H  0.53954584  0.83550699  0.48428123     0.14900
C1085       C  0.86709597  0.92446013  0.48015431    -0.14700
C1086       C  0.85564762  0.96767369  0.50305151    -0.29900
H1087       H  0.90014233  0.91720905  0.45430490     0.14300
H1088       H  0.82317022  0.97615975  0.52968300     0.14900
C1089       C  0.59379513  0.74229460  0.28568560    -0.14700
C1090       C  0.54865103  0.74487016  0.30676334    -0.29900
H1091       H  0.60228245  0.74380994  0.23093855     0.14300
H1092       H  0.54183522  0.74407585  0.36202920     0.14900
C1093       C  0.96211320  0.75836342  0.30741738    -0.14700
C1094       C  0.91801073  0.75765087  0.28467405    -0.29900
H1095       H  0.96640250  0.76022574  0.36282468     0.14300
H1096       H  0.91222089  0.75485172  0.22968916     0.14900
C1097       C  0.75611862  0.95208942  0.30455904    -0.14700
C1098       C  0.75242915  0.90692251  0.28313172    -0.29900
H1099       H  0.75503429  0.95860931  0.35993603     0.14300
H1100       H  0.75426929  0.89861455  0.22826251     0.14900
C1101       C  0.75332898  0.58123153  0.28401761    -0.14700
C1102       C  0.74644895  0.53722481  0.30643569    -0.29900
H1103       H  0.75277897  0.58784219  0.22911942     0.14300
H1104       H  0.74746697  0.53222939  0.36164315     0.14900
loop_ 
_geom_bond_atom_site_label_1 
_geom_bond_atom_site_label_2 
_geom_bond_distance 
_geom_bond_site_symmetry_2 
_ccdc_geom_bond_type 
O1           C12   1.302       .  A
O1          Eu37   2.524       .  S
O2           C13   1.301       .  A
O2          Eu36   2.515       .  S
O3           C14   1.297       .  A
O3           Eu9   2.488       .  S
O4           C15   1.282       .  A
O4           Eu9   2.418       .  S
O5           C15   1.294       .  A
O5          Eu39   2.471       .  S
O6           C14   1.273       .  A
O6          Eu38   2.366       .  S
O7           C13   1.293       .  A
O7           Eu9   2.468       .  S
O8           C12   1.289       .  A
O8           Eu9   2.448       .  S
Eu9          O19   2.370       .  S
Eu9          O11   2.332       .  S
Eu9          O10   2.363       .  S
Eu9          O17   2.338       .  S
O10         Eu39   2.362       .  S
O10         Eu36   2.368       .  S
O11         Eu37   2.353       .  S
O11         Eu38   2.358       .  S
C12         C273   1.502       .  S
C13         C237   1.500       .  S
C14         C245   1.440       .  S
C15         C249   1.459       .  S
H16          O17   0.965       .  S
O17         Eu38   2.374       .  S
O17         Eu36   2.369       .  S
H18          O19   0.962       .  S
O19         Eu37   2.371       .  S
O19         Eu39   2.354       .  S
O20          C43   1.300       .  A
O20         Eu36   2.508       .  S
O21          C44   1.298       .  A
O21         Eu37   2.502       .  S
O22          C45   1.293       .  A
O22         Eu38   2.472       .  S
O23          C46   1.287       .  A
O23         Eu39   2.439       .  S
O24          C47   1.293       .  A
O24         Eu39   2.467       .  S
O25          C48   1.293       .  A
O25         Eu38   2.472       .  S
O26          C49   1.266       .  A
O26         Eu40   2.325       .  S
O27          C50   1.283       .  A
O27         Eu40   2.429       .  S
O28          C49   1.299       .  A
O28         Eu38   2.489       .  S
O29          C50   1.283       .  A
O29         Eu39   2.448       .  S
O30          C45   1.307       .  A
O30         Eu36   2.548       .  S
O31          C48   1.304       .  A
O31         Eu37   2.546       .  S
O32          C47   1.303       .  A
O32         Eu37   2.527       .  S
O33          C46   1.308       .  A
O33         Eu36   2.557       .  S
O34          C43   1.291       .  A
O34         Eu40   2.466       .  S
O35          C44   1.301       .  A
O35         Eu40   2.518       .  S
Eu36         O54   2.358       .  S
Eu36         O42   2.366       .  S
Eu37         O41   2.384       .  S
Eu37         O52   2.370       .  S
Eu38         O52   2.339       .  S
Eu38         O42   2.308       .  S
Eu39         O41   2.368       .  S
Eu39         O54   2.352       .  S
Eu40         O41   2.326       .  S
Eu40         O52   2.353       .  S
Eu40         O54   2.328       .  S
Eu40         O42   2.360       .  S
C43         C241   1.497       .  S
C44         C270   1.515       .  S
C45         C229   1.514       .  S
C46         C233   1.509       .  S
C47         C261   1.506       .  S
C48         C266   1.517       .  S
C49         C257   1.432       .  S
C50         C253   1.465       .  S
H51          O52   0.967       .  S
H53          O54   0.964       .  S
N55          H87   1.044       .  S
N55          C59   1.352       .  A
N55         C612   1.351       .  A
N56          C64   1.335       .  A
N56         C339   1.340       .  A
N57          H88   1.036       .  S
N57          C61   1.351       .  A
N57         C614   1.351       .  A
N58          C66   1.342       .  A
N58         C341   1.347       .  A
C59          C67   1.380       .  A
C59          C75   1.405       .  A
C60         N607   1.350       .  A
C60          C76   1.415       .  A
C60          C68   1.388       .  A
C61          C69   1.395       .  A
C61          C78   1.423       .  A
C62         N609   1.347   1_455  A
C62          C77   1.400       .  A
C62          C70   1.374   1_455  A
C63         N332   1.332       .  A
C63          C75   1.389       .  A
C63          C71   1.391       .  A
C64          C78   1.393       .  A
C64          C72   1.383       .  A
C65         N334   1.338       .  A
C65          C73   1.385       .  A
C65          C76   1.395   1_565  A
C66          C74   1.381       .  A
C66          C77   1.401       .  A
C67         C620   1.369       .  A
C67          H79   1.080       .  S
C68         C619   1.368       .  A
C68          H80   1.079       .  S
C69         C622   1.356       .  A
C69          H81   1.071       .  S
C70         C621   1.364       .  A
C70          H82   1.068       .  S
C71         C348   1.386       .  A
C71          H83   1.081       .  S
C72         C347   1.369       .  A
C72          H84   1.082       .  S
C73         C350   1.378       .  A
C73          H85   1.081       .  S
C74         C349   1.362       .  A
C74          H86   1.081       .  S
C75         C246   1.463       .  S
C76         C250   1.476       .  S
C77         C254   1.474       .  S
C78         C258   1.454       .  S
O89         C100   1.301       .  A
O89        Eu401   2.511       .  S
O90         C101   1.299       .  A
O90        Eu124   2.501       .  S
O91         C102   1.280       .  A
O91        Eu649   2.406   1_556  S
O92         C103   1.277       .  A
O92         Eu97   2.403       .  S
O93         C103   1.283       .  A
O93        Eu127   2.427       .  S
O94         C102   1.282       .  A
O94        Eu126   2.411   1_556  S
O95         C101   1.293       .  A
O95         Eu97   2.469       .  S
O96         C100   1.294       .  A
O96         Eu97   2.466   1_556  S
Eu97        O643   2.398   1_554  S
Eu97        O107   2.373   1_554  S
Eu97         O98   2.323       .  S
Eu97        O651   2.343   1_554  S
Eu97        O657   2.357       .  S
O98        Eu127   2.319       .  S
O98        Eu124   2.349       .  S
O99        Eu126   2.361   1_556  S
O99        Eu649   2.344   1_556  S
O99        Eu953   2.366   1_455  S
C100        C777   1.500       .  S
C101        C189   1.498       .  S
C102        C197   1.427       .  S
C103        C201   1.457       .  S
H104        O105   0.967       .  S
O105       Eu126   2.367       .  S
O105       Eu649   2.361       .  S
O105       Eu676   2.380   1_455  S
H106        O107   0.966       .  S
O107       Eu127   2.334   1_556  S
O107       Eu401   2.402       .  S
O108        C131   1.306       .  A
O108       Eu400   2.541       .  S
O109        C132   1.302       .  A
O109       Eu125   2.522   1_545  S
O110        C133   1.293       .  A
O110       Eu126   2.468       .  S
O111        C134   1.289       .  A
O111       Eu127   2.435       .  S
O112        C135   1.298       .  A
O112       Eu403   2.489   1_556  S
O113        C136   1.287       .  A
O113       Eu402   2.429   1_556  S
O114        C137   1.281       .  A
O114       Eu680   2.417   1_556  S
O115        C138   1.278       .  A
O115       Eu128   2.400       .  S
O116        C137   1.280       .  A
O116       Eu402   2.396   1_556  S
O117        C138   1.288       .  A
O117       Eu403   2.438   1_545  S
O118        C133   1.306       .  A
O118       Eu676   2.544   1_455  S
O119        C136   1.306       .  A
O119       Eu677   2.541       .  S
O120        C135   1.300       .  A
O120       Eu125   2.509       .  S
O121        C134   1.309       .  A
O121       Eu124   2.558       .  S
O122        C131   1.284       .  A
O122       Eu128   2.418       .  S
O123        C132   1.293       .  A
O123       Eu128   2.467   1_556  S
Eu124       O384   2.538       .  S
Eu124       O670   2.541       .  S
Eu124       O657   2.389       .  S
Eu124       O418   2.368       .  S
Eu124       O958   2.348       .  S
Eu125       O365   2.521       .  S
Eu125       O671   2.569       .  S
Eu125       O129   2.391   1_565  S
Eu125       O927   2.362       .  S
Eu125       O383   2.388       .  S
Eu125       O692   2.359   1_565  S
Eu126       O389   2.452   1_554  S
Eu126       O392   2.480   1_554  S
Eu126       O416   2.337   1_554  S
Eu126       O406   2.338       .  S
Eu127       O388   2.486   1_554  S
Eu127       O393   2.375       .  S
Eu127       O405   2.350   1_554  S
Eu127       O418   2.360       .  S
Eu128       O666   2.408   1_554  S
Eu128       O129   2.354   1_554  S
Eu128       O142   2.343       .  S
Eu128       O692   2.338   1_554  S
Eu128       O682   2.371       .  S
O129       Eu403   2.343   1_546  S
O130       Eu952   2.391       .  S
O130       Eu402   2.335       .  S
O130       Eu680   2.361       .  S
C131        C193   1.484       .  S
C132        C774   1.508       .  S
C133        C182   1.513       .  S
C134        C185   1.509       .  S
C135        C213   1.509       .  S
C136        C218   1.505       .  S
C137        C209   1.429       .  S
C138        C206   1.448       .  S
H139        O140   0.964       .  S
O140       Eu677   2.366       .  S
O140       Eu402   2.357   1_556  S
O140       Eu680   2.331   1_556  S
H141        O142   0.963       .  S
O142       Eu400   2.351       .  S
O142       Eu403   2.346   1_545  S
N143        H175   1.036       .  S
N143        C148   1.344   1_556  A
N143        C147   1.346       .  A
N144        C151   1.349       .  A
N144        C152   1.348       .  A
N145        H176   1.040       .  S
N145        C150   1.338   1_556  A
N145        C149   1.344       .  A
N146        C153   1.334       .  A
N146        C154   1.338       .  A
C147        C155   1.383       .  A
C147        C163   1.388       .  A
C148        C164   1.415       .  A
C148        C156   1.388   1_554  A
C149        C157   1.382       .  A
C149        C166   1.380       .  A
C150        C165   1.413       .  A
C150        C158   1.391   1_554  A
C151        C163   1.399       .  A
C151        C159   1.384       .  A
C152        C166   1.400       .  A
C152        C160   1.379       .  A
C153        C161   1.380       .  A
C153        C164   1.398       .  A
C154        C162   1.386       .  A
C154        C165   1.404       .  A
C155        C156   1.369       .  A
C155        H167   1.080       .  S
C156        H168   1.078   1_556  S
C157        C158   1.373       .  A
C157        H169   1.078       .  S
C158        H170   1.079       .  S
C159        C160   1.365       .  A
C159        H171   1.083       .  S
C160        H172   1.080       .  S
C161        C162   1.377       .  A
C161        H173   1.078       .  S
C162        H174   1.080       .  S
C163        C198   1.464       .  S
C164        C202   1.460       .  S
C165        C205   1.454       .  S
C166        C210   1.468       .  S
C177        C190   1.545       .  S
C177        C194   1.557       .  S
C177        C262   1.554   1_655  S
C177        C817   1.560       .  S
C178        C181   1.559       .  S
C178        C186   1.552       .  S
C178        C269   1.560       .  S
C178        C550   1.549       .  S
C179        C221   1.547       .  S
C179        C226   1.549       .  S
C179        C234   1.551   1_655  S
C179        C782   1.553       .  S
C180        C242   1.544       .  S
C180        C490   1.563       .  S
C180        C493   1.557       .  S
C180        C514   1.548       .  S
C181        C182   1.360       .  D
C181        H183   1.086       .  S
C182        H460   1.075       .  S
H184        C458   1.073       .  S
C185        C186   1.364       .  D
C185        H463   1.077       .  S
C186        H188   1.085       .  S
H187        C461   1.083       .  S
C189        C742   1.358       .  D
C189        H743   1.086       .  S
C190        C741   1.365       .  D
C190        H744   1.087       .  S
H191        C741   1.086       .  S
H192        C742   1.087       .  S
C193        C746   1.360       .  D
C193        H747   1.074       .  S
C194        C745   1.363   1_655  D
C194        H748   1.087       .  S
H195        C745   1.073       .  S
H196        C746   1.088       .  S
C197        C198   1.340       .  D
C197        H199   1.087       .  S
C198        H200   1.087       .  S
C201        C202   1.345       .  D
C201        H203   1.088       .  S
C202        H204   1.087       .  S
C205        C206   1.336       .  D
C205        H207   1.087       .  S
C206        H208   1.090       .  S
C209        C210   1.348       .  D
C209        H211   1.086       .  S
C210        H212   1.087       .  S
C213        C214   1.358       .  D
C213        H491   1.086       .  S
C214        C456   1.556       .  S
C214        H216   1.086       .  S
H215        C489   1.086       .  S
C217        C456   1.547   1_545  S
C217        C218   1.366       .  D
C217        H495   1.085       .  S
C218        H220   1.085       .  S
H219        C493   1.085       .  S
C221        C222   1.360       .  D
C221        H223   1.086       .  S
C222        C684   1.504       .  S
C222        H776   1.086       .  S
H224        C774   1.086       .  S
C225        C652   1.506       .  S
C225        C226   1.356       .  D
C225        H227   1.085       .  S
C226        H780   1.086       .  S
H228        C778   1.086       .  S
C229        C230   1.369       .  D
C229        H231   1.086       .  S
C230        C731   1.554       .  S
C230        H232   1.086       .  S
C233        C234   1.358       .  D
C233        H235   1.073       .  S
C234        H236   1.086       .  S
C237        C238   1.360       .  D
C237        H239   1.083       .  S
C238        C456   1.552   1_545  S
C238        H240   1.087       .  S
C241        C242   1.355       .  D
C241        H243   1.076       .  S
C242        H244   1.086       .  S
C245        C246   1.346       .  D
C245        H247   1.087       .  S
C246        H248   1.085       .  S
C249        C250   1.347       .  D
C249        H251   1.088       .  S
C250        H252   1.086       .  S
C253        C254   1.350       .  D
C253        H255   1.087       .  S
C254        H256   1.088       .  S
C257        C258   1.320       .  D
C257        H259   1.087       .  S
C258        H260   1.091       .  S
C261        C262   1.364       .  D
C261        H263   1.086       .  S
C262        H264   1.086       .  S
C265        C729   1.562       .  S
C265        C266   1.369       .  D
C265        H267   1.086       .  S
C266        H268   1.086       .  S
C269        C270   1.360       .  D
C269        H271   1.085       .  S
C270        H272   1.086       .  S
C273        C274   1.363       .  D
C273        H275   1.086       .  S
C274        C454   1.543   1_545  S
C274        H276   1.085       .  S
O277        C288   1.303       .  A
O277       Eu313   2.529       .  S
O278        C289   1.300       .  A
O278       Eu312   2.511       .  S
O279        C290   1.289       .  A
O279       Eu285   2.453       .  S
O280        C291   1.279       .  A
O280       Eu285   2.387       .  S
O281        C291   1.283       .  A
O281       Eu315   2.424       .  S
O282        C290   1.280       .  A
O282       Eu314   2.404       .  S
O283        C289   1.295       .  A
O283       Eu285   2.476       .  S
O284        C288   1.293       .  A
O284       Eu285   2.465       .  S
Eu285       O295   2.366       .  S
Eu285       O287   2.342       .  S
Eu285       O286   2.347       .  S
Eu285       O293   2.340       .  S
O286       Eu315   2.352       .  S
O286       Eu312   2.361       .  S
O287       Eu313   2.375       .  S
O287       Eu314   2.355       .  S
C288        C549   1.506       .  S
C289        C513   1.505       .  S
C290        C521   1.448       .  S
C291        C525   1.424       .  S
H292        O293   0.964       .  S
O293       Eu314   2.364       .  S
O293       Eu312   2.382       .  S
H294        O295   0.966       .  S
O295       Eu313   2.363       .  S
O295       Eu315   2.335       .  S
O296        C319   1.305       .  A
O296       Eu312   2.533       .  S
O297        C320   1.303       .  A
O297       Eu313   2.525       .  S
O298        C321   1.294       .  A
O298       Eu314   2.472       .  S
O299        C322   1.283       .  A
O299       Eu315   2.414       .  S
O300        C323   1.292       .  A
O300       Eu315   2.469       .  S
O301        C324   1.291       .  A
O301       Eu314   2.457       .  S
O302        C325   1.274       .  A
O302       Eu316   2.365       .  S
O303        C326   1.283       .  A
O303       Eu316   2.421       .  S
O304        C325   1.289       .  A
O304       Eu314   2.448       .  S
O305        C326   1.282       .  A
O305       Eu315   2.411       .  S
O306        C321   1.306       .  A
O306       Eu312   2.538       .  S
O307        C324   1.306       .  A
O307       Eu313   2.543       .  S
O308        C323   1.304       .  A
O308       Eu313   2.532       .  S
O309        C322   1.312       .  A
O309       Eu312   2.577       .  S
O310        C319   1.289       .  A
O310       Eu316   2.447       .  S
O311        C320   1.296       .  A
O311       Eu316   2.485       .  S
Eu312       O330   2.359       .  S
Eu312       O318   2.371       .  S
Eu313       O317   2.387       .  S
Eu313       O328   2.361       .  S
Eu314       O328   2.340       .  S
Eu314       O318   2.333       .  S
Eu315       O317   2.354       .  S
Eu315       O330   2.354       .  S
Eu316       O317   2.348       .  S
Eu316       O328   2.350       .  S
Eu316       O330   2.347       .  S
Eu316       O318   2.354       .  S
C319        C517   1.504       .  S
C320        C546   1.513       .  S
C321        C505   1.513       .  S
C322        C509   1.505       .  S
C323        C537   1.511       .  S
C324        C542   1.512       .  S
C325        C533   1.431       .  S
C326        C529   1.442       .  S
H327        O328   0.963       .  S
H329        O330   0.964       .  S
N331        H363   1.042       .  S
N331        C888   1.344       .  A
N331        C335   1.353       .  A
N332        C340   1.337       .  A
N333        H364   1.044       .  S
N333        C890   1.333       .  A
N333        C337   1.344       .  A
N334        C342   1.343       .  A
C335        C343   1.379       .  A
C335        C351   1.394       .  A
C336        N883   1.346       .  A
C336        C352   1.403       .  A
C336        C344   1.387       .  A
C337        C345   1.389       .  A
C337        C354   1.403   1_565  A
C338        N885   1.331       .  A
C338        C353   1.395   1_655  A
C338        C346   1.386       .  A
C339        C351   1.388       .  A
C339        C347   1.388       .  A
C340        C354   1.397       .  A
C340        C348   1.379       .  A
C341        C349   1.387       .  A
C341        C352   1.391       .  A
C342        C350   1.390       .  A
C342        C353   1.415       .  A
C343        C896   1.361       .  A
C343        H355   1.079       .  S
C344        C895   1.363       .  A
C344        H356   1.083       .  S
C345        C898   1.382       .  A
C345        H357   1.082       .  S
C346        C897   1.383       .  A
C346        H358   1.082       .  S
C347        H359   1.083       .  S
C348        H360   1.080       .  S
C349        H361   1.081       .  S
C350        H362   1.081       .  S
C351        C522   1.481       .  S
C352        C526   1.458       .  S
C353        C530   1.451       .  S
C354        C534   1.468   1_545  S
O365        C376   1.302       .  A
O366        C377   1.305       .  A
O366       Eu400   2.538   1_565  S
O367        C378   1.290       .  A
O367       Eu925   2.464   1_556  S
O368        C379   1.287       .  A
O368       Eu373   2.432       .  S
O369        C379   1.282       .  A
O369       Eu403   2.420       .  S
O370        C378   1.276       .  A
O370       Eu402   2.384   1_566  S
O371        C377   1.290       .  A
O371       Eu373   2.447       .  S
O372        C376   1.296       .  A
O372       Eu373   2.478   1_556  S
Eu373       O919   2.433   1_554  S
Eu373       O383   2.365   1_554  S
Eu373       O927   2.337   1_554  S
Eu373       O374   2.321       .  S
Eu373       O933   2.361       .  S
O374       Eu403   2.333       .  S
O374       Eu400   2.350   1_565  S
O375       Eu925   2.324   1_556  S
O375       Eu677   2.382   1_565  S
O375       Eu402   2.349   1_566  S
C376       C1053   1.510       .  S
C377        C465   1.509       .  S
C378        C473   1.450       .  S
C379        C477   1.456       .  S
H380        O381   0.965       .  S
O381       Eu925   2.337       .  S
O381       Eu402   2.351   1_565  S
O381       Eu952   2.380   1_565  S
H382        O383   0.966       .  S
O383       Eu403   2.355   1_556  S
O384        C407   1.306       .  A
O385        C408   1.302       .  A
O385       Eu401   2.526       .  S
O386        C409   1.293       .  A
O386       Eu402   2.469       .  S
O387        C410   1.285       .  A
O387       Eu403   2.412       .  S
O388        C411   1.296       .  A
O389        C412   1.291       .  A
O390        C413   1.270       .  A
O390       Eu956   2.351   1_456  S
O391        C414   1.279       .  A
O391       Eu404   2.399       .  S
O392        C413   1.295       .  A
O393        C414   1.277       .  A
O394        C409   1.302       .  A
O394       Eu952   2.517       .  S
O395        C412   1.310       .  A
O395       Eu953   2.560   1_455  S
O396        C411   1.307       .  A
O396       Eu401   2.547       .  S
O397        C410   1.310       .  A
O397       Eu400   2.564   1_565  S
O398        C407   1.288       .  A
O398       Eu404   2.448       .  S
O399        C408   1.293       .  A
O399       Eu404   2.464   1_556  S
Eu400       O946   2.529       .  S
Eu400       O933   2.375   1_545  S
Eu400       O682   2.385       .  S
Eu401       O947   2.548       .  S
Eu401       O651   2.372       .  S
Eu401       O405   2.365       .  S
Eu401       O968   2.388       .  S
Eu404       O942   2.368       .  S
Eu404       O405   2.341   1_554  S
Eu404       O968   2.347   1_554  S
Eu404       O418   2.341       .  S
Eu404       O958   2.341       .  S
O406       Eu676   2.374   1_455  S
O406       Eu956   2.362   1_455  S
C407        C469   1.503       .  S
C408       C1050   1.510       .  S
C409        C458   1.502       .  S
C410        C461   1.509       .  S
C411        C489   1.521       .  S
C412        C494   1.516       .  S
C413        C485   1.431       .  S
C414        C482   1.418       .  S
H415        O416   0.968       .  S
O416       Eu953   2.358   1_455  S
O416       Eu956   2.340   1_456  S
H417        O418   0.966       .  S
N419        H451   1.039       .  S
N419        C424   1.343       .  A
N419        C423   1.341       .  A
N420        C427   1.346       .  A
N420        C428   1.345       .  A
N421        H452   1.042       .  S
N421        C426   1.343       .  A
N421        C425   1.341       .  A
N422        C429   1.333       .  A
N422        C430   1.337       .  A
C423        C431   1.379       .  A
C423        C439   1.387       .  A
C424        C440   1.416   1_556  A
C424        C432   1.394       .  A
C425        C433   1.385       .  A
C425        C442   1.387       .  A
C426        C441   1.411   1_556  A
C426        C434   1.390       .  A
C427        C439   1.406       .  A
C427        C435   1.390       .  A
C428        C442   1.394       .  A
C428        C436   1.383       .  A
C429        C437   1.380       .  A
C429        C440   1.400       .  A
C430        C438   1.393       .  A
C430        C441   1.409       .  A
C431        C432   1.380       .  A
C431        H443   1.082       .  S
C432        H444   1.082       .  S
C433        C434   1.377       .  A
C433        H445   1.082       .  S
C434        H446   1.083       .  S
C435        C436   1.367       .  A
C435        H447   1.083       .  S
C436        H448   1.081       .  S
C437        C438   1.382       .  A
C437        H449   1.077       .  S
C438        H450   1.080       .  S
C439        C474   1.477       .  S
C440        C478   1.461       .  S
C441        C481   1.453       .  S
C442        C486   1.464       .  S
C453        C466   1.545       .  S
C453        C470   1.548       .  S
C453        C538   1.555       .  S
C453       C1093   1.555   1_455  S
C454        C457   1.552   1_565  S
C454        C462   1.544       .  S
C454        C545   1.556       .  S
C455        C497   1.555   1_455  S
C455        C502   1.557       .  S
C455       C1058   1.555   1_455  S
C455        C510   1.553       .  S
C456        C518   1.543       .  S
C457        C458   1.355       .  D
C457        H459   1.086   1_545  S
C461        C462   1.369       .  D
C462        H464   1.085       .  S
C465       C1018   1.366       .  D
C465       H1019   1.086       .  S
C466       C1017   1.365       .  D
C466       H1020   1.087       .  S
H467       C1017   1.086       .  S
H468       C1018   1.085       .  S
C469       C1022   1.358       .  D
C469       H1023   1.067       .  S
C470       C1021   1.360   1_455  D
C470       H1024   1.088       .  S
H471       C1021   1.082       .  S
H472       C1022   1.086       .  S
C473        C474   1.351       .  D
C473        H475   1.086       .  S
C474        H476   1.086       .  S
C477        C478   1.333       .  D
C477        H479   1.090       .  S
C478        H480   1.087       .  S
C481        C482   1.340       .  D
C481        H483   1.087       .  S
C482        H484   1.089       .  S
C485        C486   1.344       .  D
C485        H487   1.084   1_556  S
C486        H488   1.087       .  S
C489        C490   1.367       .  D
C490        H492   1.085       .  S
C493        C494   1.370       .  D
C494        H496   1.086       .  S
C497        C498   1.362       .  D
C497        H499   1.084       .  S
C498        C960   1.513       .  S
C498       H1052   1.085       .  S
H500       C1050   1.086       .  S
C501        C928   1.512       .  S
C501        C502   1.364       .  D
C501        H503   1.086       .  S
C502       H1056   1.086       .  S
H504       C1054   1.086       .  S
C505        C506   1.366       .  D
C505        H507   1.086       .  S
C506       C1007   1.556       .  S
C506        H508   1.086       .  S
C509        C510   1.363       .  D
C509        H511   1.073       .  S
C510        H512   1.087       .  S
C513        C514   1.358       .  D
C513        H515   1.083       .  S
C514        H516   1.087       .  S
C517        C518   1.361       .  D
C517        H519   1.078       .  S
C518        H520   1.087       .  S
C521        C522   1.346       .  D
C521        H523   1.087       .  S
C522        H524   1.085       .  S
C525        C526   1.339       .  D
C525        H527   1.088       .  S
C526        H528   1.086       .  S
C529        C530   1.329       .  D
C529        H531   1.089       .  S
C530        H532   1.088       .  S
C533        C534   1.345       .  D
C533        H535   1.085       .  S
C534        H536   1.086       .  S
C537        C538   1.366       .  D
C537        H539   1.086       .  S
C538        H540   1.086       .  S
C541       C1005   1.554       .  S
C541        C542   1.364       .  D
C541        H543   1.086       .  S
C542        H544   1.084       .  S
C545        C546   1.364       .  D
C545        H547   1.086       .  S
C546        H548   1.086       .  S
C549        C550   1.362       .  D
C549        H551   1.086       .  S
C550        H552   1.086       .  S
O553        C564   1.302       .  A
O553       Eu589   2.528       .  S
O554        C565   1.301       .  A
O554       Eu588   2.511       .  S
O555        C566   1.295       .  A
O555       Eu561   2.482       .  S
O556        C567   1.282       .  A
O556       Eu561   2.414       .  S
O557        C567   1.293       .  A
O557       Eu591   2.470       .  S
O558        C566   1.273       .  A
O558       Eu590   2.369       .  S
O559        C565   1.292       .  A
O559       Eu561   2.465       .  S
O560        C564   1.291       .  A
O560       Eu561   2.456       .  S
Eu561       O571   2.369       .  S
Eu561       O563   2.336       .  S
Eu561       O562   2.363       .  S
Eu561       O569   2.342       .  S
O562       Eu591   2.356       .  S
O562       Eu588   2.373       .  S
O563       Eu589   2.355       .  S
O563       Eu590   2.359       .  S
C564        C825   1.505       .  S
C565        C789   1.499       .  S
C566        C797   1.441       .  S
C567        C801   1.457       .  S
H568        O569   0.964       .  S
O569       Eu590   2.364       .  S
O569       Eu588   2.371       .  S
H570        O571   0.962       .  S
O571       Eu589   2.371       .  S
O571       Eu591   2.347       .  S
O572        C595   1.303       .  A
O572       Eu588   2.527       .  S
O573        C596   1.299       .  A
O573       Eu589   2.505       .  S
O574        C597   1.292       .  A
O574       Eu590   2.467       .  S
O575        C598   1.286       .  A
O575       Eu591   2.439       .  S
O576        C599   1.292       .  A
O576       Eu591   2.466       .  S
O577        C600   1.290       .  A
O577       Eu590   2.458       .  S
O578        C601   1.271       .  A
O578       Eu592   2.352       .  S
O579        C602   1.289       .  A
O579       Eu592   2.453       .  S
O580        C601   1.295       .  A
O580       Eu590   2.463       .  S
O581        C602   1.280       .  A
O581       Eu591   2.423       .  S
O582        C597   1.306       .  A
O582       Eu588   2.540       .  S
O583        C600   1.303       .  A
O583       Eu589   2.547       .  S
O584        C599   1.303       .  A
O584       Eu589   2.526       .  S
O585        C598   1.307       .  A
O585       Eu588   2.556       .  S
O586        C595   1.293       .  A
O586       Eu592   2.472       .  S
O587        C596   1.298       .  A
O587       Eu592   2.500       .  S
Eu588       O606   2.359       .  S
Eu588       O594   2.361       .  S
Eu589       O593   2.379       .  S
Eu589       O604   2.366       .  S
Eu590       O604   2.340       .  S
Eu590       O594   2.315       .  S
Eu591       O593   2.365       .  S
Eu591       O606   2.361       .  S
Eu592       O593   2.331       .  S
Eu592       O604   2.355       .  S
Eu592       O606   2.334       .  S
Eu592       O594   2.359       .  S
C595        C793   1.507       .  S
C596        C822   1.509       .  S
C597        C781   1.513       .  S
C598        C785   1.509       .  S
C599        C813   1.506       .  S
C600        C818   1.516       .  S
C601        C809   1.438       .  S
C602        C805   1.459       .  S
H603        O604   0.966       .  S
H605        O606   0.963       .  S
N607        H639   1.044       .  S
N607        C611   1.352       .  A
N608        C891   1.343       .  A
N608        C616   1.330       .  A
N609        H640   1.039       .  S
N609        C613   1.351       .  A
N610        C893   1.350       .  A
N610        C618   1.349       .  A
C611        C619   1.381       .  A
C611        C627   1.405   1_455  A
C612        C628   1.416       .  A
C612        C620   1.388       .  A
C613        C621   1.387       .  A
C613        C630   1.403       .  A
C614        C629   1.401       .  A
C614        C622   1.377       .  A
C615        N884   1.331       .  A
C615        C627   1.392       .  A
C615        C623   1.394       .  A
C616        C630   1.393       .  A
C616        C624   1.389       .  A
C617        N886   1.338       .  A
C617        C625   1.385       .  A
C617        C628   1.397   1_565  A
C618        C626   1.383       .  A
C618        C629   1.407       .  A
C619        H631   1.080       .  S
C620        H632   1.079       .  S
C621        H633   1.081       .  S
C622        H634   1.082       .  S
C623        C900   1.386       .  A
C623        H635   1.082       .  S
C624        C899   1.376       .  A
C624        H636   1.083       .  S
C625        C902   1.376       .  A
C625        H637   1.081       .  S
C626        C901   1.358       .  A
C626        H638   1.081       .  S
C627        C798   1.465       .  S
C628        C802   1.475       .  S
C629        C806   1.476       .  S
C630        C810   1.459       .  S
O641        C652   1.297       .  A
O641       Eu953   2.506       .  S
O642        C653   1.303   1_655  A
O642       Eu676   2.526       .  S
O643        C654   1.278       .  A
O644        C655   1.277       .  A
O644       Eu649   2.401   1_655  S
O645        C655   1.284       .  A
O645       Eu679   2.427       .  S
O646        C654   1.282       .  A
O646       Eu678   2.412   1_556  S
O647        C653   1.292       .  A
O647       Eu649   2.466       .  S
O648        C652   1.292       .  A
O648       Eu649   2.468   1_656  S
Eu649       O659   2.375   1_454  S
Eu649       O650   2.321   1_455  S
O650       Eu679   2.332       .  S
O650       Eu676   2.343       .  S
O651       Eu678   2.351   1_556  S
C653        C741   1.508   1_455  S
C654        C749   1.429       .  S
C655        C753   1.454       .  S
H656        O657   0.966       .  S
O657       Eu678   2.354       .  S
H658        O659   0.966       .  S
O659       Eu953   2.395       .  S
O659       Eu679   2.351   1_556  S
O660        C683   1.308       .  A
O660       Eu952   2.549       .  S
O661        C684   1.300   1_455  A
O661       Eu677   2.513       .  S
O662        C685   1.295       .  A
O662       Eu678   2.478       .  S
O663        C686   1.287       .  A
O663       Eu679   2.425       .  S
O664        C687   1.297   1_545  A
O664       Eu955   2.494   1_546  S
O665        C688   1.287       .  A
O665       Eu954   2.430   1_566  S
O666        C689   1.279       .  A
O667        C690   1.277       .  A
O667       Eu680   2.390   1_655  S
O668        C689   1.282       .  A
O668       Eu954   2.408   1_556  S
O669        C690   1.293       .  A
O669       Eu955   2.472   1_545  S
O670        C685   1.306       .  A
O671        C688   1.311       .  A
O672        C687   1.306       .  A
O672       Eu677   2.545   1_665  S
O673        C686   1.310       .  A
O673       Eu676   2.568       .  S
O674        C683   1.285       .  A
O674       Eu680   2.425       .  S
O675        C684   1.293       .  A
O675       Eu680   2.463   1_656  S
Eu676       O936   2.535       .  S
Eu676       O970   2.357       .  S
Eu677       O917   2.529   1_545  S
Eu677       O935   2.347   1_445  S
Eu677       O681   2.388   1_455  S
Eu678       O941   2.456   1_554  S
Eu678       O944   2.441       .  S
Eu678       O968   2.357   1_554  S
Eu678       O958   2.327       .  S
Eu679       O940   2.485   1_554  S
Eu679       O945   2.434       .  S
Eu679       O957   2.357   1_554  S
Eu679       O970   2.353       .  S
Eu680       O681   2.362   1_454  S
Eu680       O694   2.348   1_455  S
O681       Eu955   2.347   1_546  S
O682       Eu954   2.336       .  S
C683        C745   1.491       .  S
C685        C734   1.516       .  S
C686        C737   1.510       .  S
C687        C765   1.525       .  S
C688        C770   1.515       .  S
C689        C761   1.431       .  S
C690        C758   1.454       .  S
H691        O692   0.966       .  S
O692       Eu954   2.351   1_556  S
H693        O694   0.965       .  S
O694       Eu952   2.337   1_655  S
O694       Eu955   2.338   1_545  S
N695        H727   1.035       .  S
N695        C700   1.342   1_556  A
N695        C699   1.347       .  A
N696        C703   1.351       .  A
N696        C704   1.349       .  A
N697        H728   1.039       .  S
N697        C702   1.341   1_556  A
N697        C701   1.345       .  A
N698        C705   1.339       .  A
N698        C706   1.342       .  A
C699        C707   1.384       .  A
C699        C715   1.388       .  A
C700        C716   1.413       .  A
C700        C708   1.389   1_554  A
C701        C709   1.385       .  A
C701        C718   1.381       .  A
C702        C717   1.410       .  A
C702        C710   1.389   1_554  A
C703        C715   1.403       .  A
C703        C711   1.385       .  A
C704        C718   1.400       .  A
C704        C712   1.376       .  A
C705        C713   1.379       .  A
C705        C716   1.402       .  A
C706        C714   1.382       .  A
C706        C717   1.405       .  A
C707        C708   1.369       .  A
C707        H719   1.080       .  S
C708        H720   1.079   1_556  S
C709        C710   1.364       .  A
C709        H721   1.075       .  S
C710        H722   1.080   1_556  S
C711        C712   1.364       .  A
C711        H723   1.083       .  S
C712        H724   1.079       .  S
C713        C714   1.375       .  A
C713        H725   1.080       .  S
C714        H726   1.080       .  S
C715        C750   1.464       .  S
C716        C754   1.460       .  S
C717        C757   1.462       .  S
C718        C762   1.462       .  S
C729        C742   1.538       .  S
C729        C746   1.551       .  S
C729        C814   1.555       .  S
C730        C733   1.562       .  S
C730        C738   1.550       .  S
C730        C821   1.555       .  S
C730       C1102   1.548       .  S
C731        C773   1.551       .  S
C731        C778   1.543       .  S
C731        C786   1.551       .  S
C732       C1042   1.561       .  S
C732       C1045   1.555       .  S
C732       C1066   1.555       .  S
C732        C794   1.554       .  S
C733        C734   1.365       .  D
C733        H735   1.086       .  S
C734       H1012   1.079       .  S
H736       C1010   1.074       .  S
C737        C738   1.370       .  D
C737       H1015   1.086       .  S
C738        H740   1.086       .  S
H739       C1013   1.082       .  S
C749        C750   1.340       .  D
C749        H751   1.088       .  S
C750        H752   1.087       .  S
C753        C754   1.343       .  D
C753        H755   1.089       .  S
C754        H756   1.087       .  S
C757        C758   1.337       .  D
C757        H759   1.087       .  S
C758        H760   1.090       .  S
C761        C762   1.346       .  D
C761        H763   1.087       .  S
C762        H764   1.087       .  S
C765        C766   1.370       .  D
C765       H1043   1.086       .  S
C766       C1008   1.570       .  S
C766        H768   1.085   1_565  S
H767       C1041   1.085       .  S
C769       C1008   1.561       .  S
C769        C770   1.373       .  D
C769       H1047   1.085   1_565  S
C770        H772   1.085       .  S
H771       C1045   1.085       .  S
C773        C774   1.362       .  D
C773        H775   1.086       .  S
C777        C778   1.358       .  D
C777        H779   1.085       .  S
C781        C782   1.367       .  D
C781        H783   1.086       .  S
C782        H784   1.086       .  S
C785        C786   1.360       .  D
C785        H787   1.076       .  S
C786        H788   1.086       .  S
C789        C790   1.359       .  D
C789        H791   1.075       .  S
C790       C1008   1.548   1_545  S
C790        H792   1.087       .  S
C793        C794   1.361       .  D
C793        H795   1.077       .  S
C794        H796   1.086       .  S
C797        C798   1.347       .  D
C797        H799   1.087       .  S
C798        H800   1.084       .  S
C801        C802   1.346       .  D
C801        H803   1.088       .  S
C802        H804   1.087       .  S
C805        C806   1.345       .  D
C805        H807   1.087       .  S
C806        H808   1.087       .  S
C809        C810   1.323       .  D
C809        H811   1.088       .  S
C810        H812   1.088       .  S
C813        C814   1.366       .  D
C813        H815   1.086       .  S
C814        H816   1.086       .  S
C817        C818   1.367       .  D
C817        H819   1.086       .  S
C818        H820   1.086       .  S
C821        C822   1.360       .  D
C821        H823   1.086       .  S
C822        H824   1.086       .  S
C825        C826   1.362       .  D
C825        H827   1.085       .  S
C826       C1006   1.545   1_545  S
C826        H828   1.085       .  S
O829        C840   1.303       .  A
O829       Eu865   2.532       .  S
O830        C841   1.302       .  A
O830       Eu864   2.519       .  S
O831        C842   1.291       .  A
O831       Eu837   2.460       .  S
O832        C843   1.275       .  A
O832       Eu837   2.360       .  S
O833        C843   1.286       .  A
O833       Eu867   2.438       .  S
O834        C842   1.278       .  A
O834       Eu866   2.404       .  S
O835        C841   1.296       .  A
O835       Eu837   2.481       .  S
O836        C840   1.293       .  A
O836       Eu837   2.467       .  S
Eu837       O847   2.370       .  S
Eu837       O839   2.326       .  S
Eu837       O838   2.347       .  S
Eu837       O845   2.341       .  S
O838       Eu867   2.344       .  S
O838       Eu864   2.353       .  S
O839       Eu865   2.372       .  S
O839       Eu866   2.357       .  S
C840       C1101   1.508       .  S
C841       C1065   1.511       .  S
C842       C1073   1.453       .  S
C843       C1077   1.422       .  S
H844        O845   0.965       .  S
O845       Eu866   2.364       .  S
O845       Eu864   2.390       .  S
H846        O847   0.965       .  S
O847       Eu865   2.366       .  S
O847       Eu867   2.339       .  S
O848        C871   1.305       .  A
O848       Eu864   2.536       .  S
O849        C872   1.302       .  A
O849       Eu865   2.520       .  S
O850        C873   1.293       .  A
O850       Eu866   2.467       .  S
O851        C874   1.287       .  A
O851       Eu867   2.433       .  S
O852        C875   1.294       .  A
O852       Eu867   2.478       .  S
O853        C876   1.290       .  A
O853       Eu866   2.447       .  S
O854        C877   1.274       .  A
O854       Eu868   2.369       .  S
O855        C878   1.284       .  A
O855       Eu868   2.425       .  S
O856        C877   1.288       .  A
O856       Eu866   2.445       .  S
O857        C878   1.283       .  A
O857       Eu867   2.416       .  S
O858        C873   1.306       .  A
O858       Eu864   2.538       .  S
O859        C876   1.308       .  A
O859       Eu865   2.551       .  S
O860        C875   1.305       .  A
O860       Eu865   2.538       .  S
O861        C874   1.313       .  A
O861       Eu864   2.576       .  S
O862        C871   1.283       .  A
O862       Eu868   2.419       .  S
O863        C872   1.295       .  A
O863       Eu868   2.482       .  S
Eu864       O882   2.351       .  S
Eu864       O870   2.382       .  S
Eu865       O869   2.390       .  S
Eu865       O880   2.356       .  S
Eu866       O880   2.338       .  S
Eu866       O870   2.341       .  S
Eu867       O869   2.365       .  S
Eu867       O882   2.348       .  S
Eu868       O869   2.350       .  S
Eu868       O880   2.335       .  S
Eu868       O882   2.343       .  S
Eu868       O870   2.366       .  S
C871       C1069   1.486       .  S
C872       C1098   1.510       .  S
C873       C1057   1.512       .  S
C874       C1061   1.515       .  S
C875       C1089   1.517       .  S
C876       C1094   1.511       .  S
C877       C1085   1.431       .  S
C878       C1081   1.441       .  S
H879        O880   0.964       .  S
H881        O882   0.962       .  S
N883        H915   1.042       .  S
N883        C887   1.351   1_455  A
N884        C892   1.336       .  A
N885        H916   1.043       .  S
N885        C889   1.341       .  A
N886        C894   1.343       .  A
C887        C895   1.385   1_655  A
C887        C903   1.402       .  A
C888        C904   1.409       .  A
C888        C896   1.395       .  A
C889        C897   1.391       .  A
C889        C906   1.403   1_565  A
C890        C905   1.397       .  A
C890        C898   1.386       .  A
C891        C903   1.387       .  A
C891        C899   1.382       .  A
C892        C906   1.397       .  A
C892        C900   1.376       .  A
C893        C901   1.389       .  A
C893        C904   1.400       .  A
C894        C902   1.390       .  A
C894        C905   1.415       .  A
C895        H907   1.076       .  S
C896        H908   1.083       .  S
C897        H909   1.082       .  S
C898        H910   1.082       .  S
C899        H911   1.080       .  S
C900        H912   1.079       .  S
C901        H913   1.083       .  S
C902        H914   1.081       .  S
C903       C1074   1.468       .  S
C904       C1078   1.454       .  S
C905       C1082   1.453       .  S
C906       C1086   1.461   1_545  S
O917        C928   1.304       .  A
O918        C929   1.304       .  A
O918       Eu952   2.534   1_565  S
O919        C930   1.285       .  A
O920        C931   1.277       .  A
O920       Eu925   2.368   1_655  S
O921        C931   1.283       .  A
O921       Eu955   2.422       .  S
O922        C930   1.277       .  A
O922       Eu954   2.381   1_566  S
O923        C929   1.292       .  A
O923       Eu925   2.461       .  S
O924        C928   1.295       .  A
O924       Eu925   2.478   1_556  S
Eu925       O935   2.374   1_454  S
Eu925       O926   2.352   1_455  S
O926       Eu955   2.362       .  S
O926       Eu952   2.359   1_665  S
O927       Eu954   2.350   1_566  S
C929       C1017   1.509       .  S
C930       C1025   1.431       .  S
C931       C1029   1.414   1_554  S
H932        O933   0.967       .  S
O933       Eu954   2.349   1_565  S
H934        O935   0.964       .  S
O935       Eu955   2.353   1_556  S
O936        C959   1.304       .  A
O937        C960   1.303       .  A
O937       Eu953   2.530       .  S
O938        C961   1.290       .  A
O938       Eu954   2.460       .  S
O939        C962   1.285       .  A
O939       Eu955   2.415       .  S
O940        C963   1.297       .  A
O941        C964   1.292       .  A
O942        C965   1.272       .  A
O943        C966   1.282       .  A
O943       Eu956   2.413       .  S
O944        C965   1.290       .  A
O945        C966   1.281       .  A
O946        C961   1.303       .  A
O947        C964   1.308       .  A
O948        C963   1.304       .  A
O948       Eu953   2.528       .  S
O949        C962   1.312       .  A
O949       Eu952   2.574   1_665  S
O950        C959   1.284       .  A
O950       Eu956   2.430       .  S
O951        C960   1.294       .  A
O951       Eu956   2.471   1_556  S
Eu953       O957   2.386       .  S
Eu956       O957   2.340   1_554  S
Eu956       O970   2.332       .  S
C959       C1021   1.491       .  S
C961       C1010   1.505       .  S
C962       C1013   1.513       .  S
C963       C1041   1.517       .  S
C964       C1046   1.514       .  S
C965       C1037   1.435       .  S
C966       C1034   1.456       .  S
H967        O968   0.966       .  S
H969        O970   0.963       .  S
N971       H1003   1.044       .  S
N971        C976   1.339       .  A
N971        C975   1.347       .  A
N972        C979   1.339       .  A
N972        C980   1.333       .  A
N973       H1004   1.034       .  S
N973        C978   1.343       .  A
N973        C977   1.343       .  A
N974        C981   1.350       .  A
N974        C982   1.345   1_556  A
C975        C983   1.384       .  A
C975        C991   1.392       .  A
C976        C992   1.399       .  A
C976        C984   1.392       .  A
C977        C985   1.386       .  A
C977        C994   1.405       .  A
C978        C993   1.411       .  A
C978        C986   1.388       .  A
C979        C991   1.386       .  A
C979        C987   1.381       .  A
C980        C994   1.392   1_556  A
C980        C988   1.383       .  A
C981        C989   1.386       .  A
C981        C992   1.395       .  A
C982        C990   1.384       .  A
C982        C993   1.415       .  A
C983        C984   1.365       .  A
C983        H995   1.082       .  S
C984        H996   1.083       .  S
C985        C986   1.367       .  A
C985        H997   1.082       .  S
C986        H998   1.078       .  S
C987        C988   1.373       .  A
C987        H999   1.083       .  S
C988       H1000   1.083       .  S
C989        C990   1.365   1_556  A
C989       H1001   1.078       .  S
C990       H1002   1.081       .  S
C991       C1026   1.466       .  S
C992       C1030   1.451       .  S
C993       C1033   1.470       .  S
C994       C1038   1.442       .  S
C1005      C1018   1.546       .  S
C1005      C1022   1.558       .  S
C1005      C1090   1.559       .  S
C1006      C1009   1.555       .  S
C1006      C1014   1.551       .  S
C1006      C1097   1.554       .  S
C1007      C1049   1.550       .  S
C1007      C1054   1.553       .  S
C1007      C1062   1.558       .  S
C1008      C1070   1.548       .  S
C1009      C1010   1.360   1_565  D
C1009      H1011   1.086       .  S
C1013      C1014   1.372       .  D
C1014      H1016   1.085       .  S
C1025      C1026   1.345       .  D
C1025      H1027   1.085       .  S
C1026      H1028   1.086       .  S
C1029      C1030   1.344       .  D
C1029      H1031   1.087   1_556  S
C1030      H1032   1.086       .  S
C1033      C1034   1.349       .  D
C1033      H1035   1.088       .  S
C1034      H1036   1.088       .  S
C1037      C1038   1.317       .  D
C1037      H1039   1.089       .  S
C1038      H1040   1.088   1_554  S
C1041      C1042   1.363       .  D
C1042      H1044   1.086       .  S
C1045      C1046   1.368       .  D
C1046      H1048   1.086       .  S
C1049      C1050   1.361       .  D
C1049      H1051   1.085       .  S
C1053      C1054   1.361       .  D
C1053      H1055   1.086       .  S
C1057      C1058   1.363       .  D
C1057      H1059   1.078       .  S
C1058      H1060   1.086       .  S
C1061      C1062   1.367       .  D
C1061      H1063   1.078       .  S
C1062      H1064   1.086       .  S
C1065      C1066   1.362       .  D
C1065      H1067   1.086       .  S
C1066      H1068   1.086       .  S
C1069      C1070   1.360       .  D
C1069      H1071   1.079       .  S
C1070      H1072   1.088       .  S
C1073      C1074   1.342       .  D
C1073      H1075   1.087       .  S
C1074      H1076   1.088       .  S
C1077      C1078   1.340       .  D
C1077      H1079   1.088       .  S
C1078      H1080   1.082       .  S
C1081      C1082   1.328       .  D
C1081      H1083   1.089       .  S
C1082      H1084   1.088       .  S
C1085      C1086   1.343       .  D
C1085      H1087   1.087       .  S
C1086      H1088   1.086       .  S
C1089      C1090   1.366       .  D
C1089      H1091   1.086       .  S
C1090      H1092   1.086       .  S
C1093      C1094   1.369       .  D
C1093      H1095   1.086       .  S
C1094      H1096   1.086       .  S
C1097      C1098   1.362       .  D
C1097      H1099   1.086       .  S
C1098      H1100   1.086       .  S
C1101      C1102   1.363       .  D
C1101      H1103   1.086       .  S
C1102      H1104   1.084       .  S
