geometry optimzed in LAMMPS
_audit_creation_date              2020-12-01 
_audit_creation_method            'lammps2cif' 
_symmetry_space_group_name_H-M    'P1' 
_symmetry_Int_Tables_number       1 
_symmetry_cell_setting            triclinic 
loop_ 
_symmetry_equiv_pos_as_xyz 
  x,y,z 
_cell_length_a                    23.25075354 
_cell_length_b                    23.86935700721444 
_cell_length_c                    23.13380674096029 
_cell_angle_alpha                 89.01887841347991 
_cell_angle_beta                  90.93029758818385 
_cell_angle_gamma                 89.57650548502285 
loop_ 
_atom_site_label 
_atom_site_type_symbol 
_atom_site_fract_x 
_atom_site_fract_y 
_atom_site_fract_z 
_atom_site_charge 
C1          C  0.04078169  0.06233438  0.01288641     0.86700
C2          C  0.98960574  0.07350510  0.05318248    -0.53500
C3          C  0.00649913  0.08784534  0.10880263     0.09600
C4          C  0.07338627  0.08635853  0.11882258     0.20600
C5          C  0.07342215  0.11587037  0.01950557    -0.54200
C6          C  0.09761171  0.12531804  0.07117556     0.09700
C7          C  0.07501308  0.01531334  0.04561554    -0.53800
C8          C  0.09136832  0.02759984  0.10069931     0.10300
H9          H  0.94500274  0.07512701  0.03940524     0.14800
H10         H  0.08741286  0.09707610  0.16329811     0.00600
H11         H  0.08240246  0.14225091  0.98209005     0.15100
H12         H  0.08602088  0.97552974  0.02659877     0.14900
C13         C  0.65497414  0.00397858  0.76207954     0.86700
C14         C  0.70650219  0.02892838  0.72829344    -0.53500
C15         C  0.69207123  0.05541093  0.67684034     0.09600
C16         C  0.62738794  0.05609716  0.66394117     0.20600
C17         C  0.61588149  0.05330176  0.76860843    -0.54200
C18         C  0.60328889  0.08286163  0.71959267     0.09700
C19         C  0.62381744  0.96726189  0.71824461    -0.53800
C20         C  0.61074738  0.99271988  0.66633271     0.10300
H21         H  0.74990804  0.02907543  0.74486828     0.14800
H22         H  0.61487354  0.07865581  0.62323725     0.00600
H23         H  0.60060339  0.06672964  0.80987037     0.15100
H24         H  0.61147436  0.92439683  0.72728838     0.14900
C25         C  0.74994989  0.70964926  0.01073595     0.86700
C26         C  0.70789715  0.67791137  0.97093944    -0.53500
C27         C  0.66378122  0.65165171  0.99877435     0.09600
C28         C  0.66385863  0.66230290  0.06546658     0.20600
C29         C  0.70904146  0.75162761  0.04025537    -0.54200
C30         C  0.66499743  0.72754771  0.07051250     0.09700
C31         C  0.76741814  0.66804909  0.05777636    -0.53800
C32         C  0.72470480  0.64311673  0.08656752     0.10300
H33         H  0.71177510  0.67675268  0.92432090     0.14800
H34         H  0.62832861  0.64175164  0.08904659     0.00600
H35         H  0.71375198  0.79674964  0.03733457     0.15100
H36         H  0.81241772  0.65878493  0.06844781     0.14900
C37         C  0.96464725  0.66433249  0.69493231     0.86700
C38         C  0.96220853  0.61030486  0.66502114    -0.53500
C39         C  0.01310890  0.58947009  0.64812417     0.09600
C40         C  0.06593104  0.62559184  0.66629582     0.20600
C41         C  0.00469861  0.65153495  0.74735841    -0.54200
C42         C  0.05831744  0.63148519  0.73239064     0.09700
C43         C  0.99950358  0.70383853  0.65662301    -0.53800
C44         C  0.05274647  0.68525203  0.64210491     0.10300
H45         H  0.92117113  0.59106555  0.65403039     0.14800
H46         H  0.10821160  0.60822331  0.65354808     0.00600
H47         H  0.99113434  0.65484365  0.79161226     0.15100
H48         H  0.98377151  0.74485778  0.64415346     0.14900
C49         C  0.98181958  0.89364059  0.80609091    -0.02300
C50         C  0.60986824  0.59918522  0.46691029     0.03400
C51         C  0.59309505  0.65412859  0.44929303    -0.12800
C52         C  0.62868281  0.68637565  0.41332541     0.00900
C53         C  0.68014037  0.66192079  0.39436516    -0.11300
C54         C  0.70039378  0.60869894  0.41390392     0.03300
C55         C  0.66402792  0.57687037  0.44975288    -0.10700
H56         H  0.55308493  0.67176824  0.46426669     0.08900
H57         H  0.70730263  0.68681333  0.36636546     0.06500
H58         H  0.67817015  0.53604330  0.46578640     0.06300
C59         C  0.45823218  0.60034291  0.61174627     0.03400
C60         C  0.43461737  0.65237785  0.59026528    -0.12800
C61         C  0.38980498  0.67922209  0.62057137     0.00900
C62         C  0.36722064  0.65068365  0.66844741    -0.11300
C63         C  0.39698769  0.60659027  0.69691514     0.03300
C64         C  0.44160725  0.57989876  0.66720003    -0.10700
H65         H  0.45110222  0.67143632  0.55115536     0.08900
H66         H  0.33131570  0.66983810  0.69043382     0.06500
H67         H  0.46357013  0.54403648  0.68689038     0.06300
C68         C  0.23027811  0.66718048  0.09879598     0.03400
C69         C  0.25420285  0.63911830  0.05067568    -0.12800
C70         C  0.30669707  0.65707519  0.02701465     0.00900
C71         C  0.33347390  0.70404430  0.05118922    -0.11300
C72         C  0.30753397  0.73596482  0.09416638     0.03300
C73         C  0.25323221  0.72001871  0.11401158    -0.10700
H74         H  0.23564666  0.60014113  0.03632186     0.08900
H75         H  0.37385110  0.71832303  0.03344330     0.06500
H76         H  0.23451501  0.74305944  0.14915098     0.06300
C77         C  0.64288845  0.26038548  0.12952033     0.03400
C78         C  0.69538209  0.28358033  0.15026832    -0.12800
C79         C  0.72598325  0.32231049  0.11559793     0.00900
C80         C  0.70189100  0.33783066  0.06096567    -0.11300
C81         C  0.65012738  0.31533406  0.03902373     0.03300
C82         C  0.62089257  0.27673335  0.07393717    -0.10700
H83         H  0.71243584  0.27092555  0.19236857     0.08900
H84         H  0.72483703  0.36739897  0.03392882     0.06500
H85         H  0.58116974  0.25892050  0.05778638     0.06300
O86         O  0.44693247  0.66066478  0.88295031    -0.74200
O87         O  0.28019578  0.66102962  0.83787570    -0.74200
O88         O  0.34326383  0.67764011  0.93624747    -0.74300
O89         O  0.38391667  0.65314258  0.78292509    -0.74300
O90         O  0.38377515  0.56042548  0.79348606    -0.74300
O91         O  0.33463370  0.58635221  0.95448387    -0.74200
O92         O  0.28316894  0.56871567  0.85099836    -0.74200
O93         O  0.43867658  0.56913847  0.89928915    -0.74300
Ni94       Ni  0.36390989  0.66634816  0.85944044     1.25400
Ni95       Ni  0.36040075  0.56795605  0.87533285     1.25400
C96         C  0.47001613  0.61267040  0.89759989     0.88000
C97         C  0.25433564  0.61291734  0.83886900     0.87900
C98         C  0.32924290  0.63799451  0.97030226     0.87900
C99         C  0.38908730  0.60486000  0.76115780     0.88100
O100        O  0.56234129  0.38822265  0.79440713    -0.74200
O101        O  0.58139279  0.33651569  0.95767612    -0.74200
O102        O  0.57134225  0.43708702  0.89970986    -0.74300
O103        O  0.56122761  0.28712139  0.85193947    -0.74300
O104        O  0.65506942  0.28053850  0.83716022    -0.74300
O105        O  0.66617603  0.43944755  0.89075093    -0.74200
O106        O  0.67552209  0.33422504  0.94268622    -0.74200
O107        O  0.65777802  0.38475995  0.78910938    -0.74300
Ni108      Ni  0.56586135  0.36212764  0.87651881     1.25400
Ni109      Ni  0.66708338  0.35932350  0.86506166     1.25400
C110        C  0.60920274  0.39448253  0.76539561     0.88000
C111        C  0.63363894  0.32867902  0.97692389     0.87900
C112        C  0.61774938  0.46484550  0.90109562     0.87900
C113        C  0.60378147  0.25896261  0.83391722     0.88100
C114        C  0.53341024  0.60195172  0.91035240     0.03400
C115        C  0.56844811  0.63440861  0.94710792    -0.12800
C116        C  0.62376327  0.61442668  0.96561681     0.00900
C117        C  0.64336541  0.56045844  0.94817326    -0.11300
C118        C  0.60883605  0.52700291  0.91194223     0.03300
C119        C  0.55588108  0.55026134  0.89168289    -0.10700
H120        H  0.55269971  0.67437358  0.96201912     0.08900
H121        H  0.68440231  0.54433971  0.96408067     0.06500
H122        H  0.52919082  0.52543824  0.86316655     0.06300
C123        C  0.61328209  0.41085592  0.70330507     0.03400
C124        C  0.59969493  0.46521887  0.68302670    -0.12800
C125        C  0.62423102  0.48608091  0.63131527     0.00900
C126        C  0.67326421  0.45785924  0.60937055    -0.11300
C127        C  0.68726880  0.40317075  0.62888128     0.03300
C128        C  0.65209475  0.37863445  0.67129240    -0.10700
H129        H  0.56643886  0.48902117  0.70414054     0.08900
H130        H  0.69656312  0.47605964  0.57358793     0.06500
H131        H  0.66383925  0.33723600  0.68804191     0.06300
C132        C  0.12668691  0.63588466  0.27629285     0.03400
C133        C  0.07439466  0.60854489  0.29098859    -0.12800
C134        C  0.03593819  0.63400123  0.32941689     0.00900
C135        C  0.05255701  0.68652479  0.35247085    -0.11300
C136        C  0.10245262  0.71528086  0.33581991     0.03300
C137        C  0.13989754  0.68896000  0.29862644    -0.10700
H138        H  0.06379254  0.56808942  0.27247581     0.08900
H139        H  0.02464260  0.70735691  0.38252288     0.06500
H140        H  0.17872913  0.71029221  0.28557919     0.06300
O141        O  0.89986910  0.62725831  0.46025862    -0.74200
O142        O  0.83808777  0.65828373  0.30245195    -0.74200
O143        O  0.79360097  0.64188734  0.40992109    -0.74300
O144        O  0.94262393  0.65608079  0.35575408    -0.74300
O145        O  0.95382972  0.56497925  0.34259020    -0.74300
O146        O  0.78829518  0.55171155  0.38877360    -0.74200
O147        O  0.84713960  0.56648393  0.29029509    -0.74200
O148        O  0.89507942  0.53647156  0.44116316    -0.74300
Ni149      Ni  0.86833070  0.64898748  0.38294965     1.25400
Ni150      Ni  0.87123203  0.55147139  0.36521396     1.25400
C151        C  0.90722814  0.57515969  0.47570266     0.88000
C152        C  0.83460247  0.61466473  0.27003379     0.87900
C153        C  0.76380087  0.59799740  0.40497113     0.87900
C154        C  0.97481751  0.61558227  0.34230954     0.88100
O155        O  0.80786860  0.26202414  0.69122007    -0.74200
O156        O  0.87793508  0.41367289  0.67736366    -0.74200
O157        O  0.76870553  0.37116148  0.67673538    -0.74300
O158        O  0.91210858  0.30780326  0.70536691    -0.74300
O159        O  0.92734432  0.29235982  0.61231660    -0.74300
O160        O  0.77493853  0.36534246  0.58122185    -0.74200
O161        O  0.88752409  0.39716655  0.58361596    -0.74200
O162        O  0.81637916  0.25920335  0.59593925    -0.74300
Ni163      Ni  0.84083068  0.33934260  0.69099313     1.25400
Ni164      Ni  0.85181347  0.32809780  0.58988498     1.25400
C165        C  0.80453057  0.23475667  0.64312858     0.88000
C166        C  0.89513903  0.42878755  0.62615288     0.87900
C167        C  0.74679773  0.37938356  0.62687741     0.87900
C168        C  0.94405866  0.28963348  0.66629585     0.88100
C169        C  0.92284775  0.48280955  0.61001549     0.03400
C170        C  0.89890867  0.51294325  0.56225223    -0.12800
C171        C  0.92955777  0.55522921  0.53293422     0.00900
C172        C  0.98537042  0.56775213  0.55232537    -0.11300
C173        C  0.00601491  0.54523315  0.60581857     0.03300
C174        C  0.97862201  0.49688543  0.62904399    -0.10700
H175        H  0.85724711  0.50062444  0.54514287     0.08900
H176        H  0.00783155  0.60229427  0.53194599     0.06500
H177        H  0.99639498  0.47629463  0.66750686     0.06300
C178        C  0.07494470  0.19779286  0.70995642     0.03400
C179        C  0.02493918  0.21684290  0.67861233    -0.12800
C180        C  0.00059918  0.26938540  0.68987958     0.00900
C181        C  0.02478432  0.30128816  0.73475226    -0.11300
C182        C  0.07185292  0.28249556  0.76840292     0.03300
C183        C  0.09313728  0.22820935  0.75941235    -0.10700
H184        H  0.00933988  0.19449558  0.64133715     0.08900
H185        H  0.00622198  0.34197133  0.74398873     0.06500
H186        H  0.13118162  0.21469703  0.78351734     0.06300
C187        C  0.60922978  0.01809795  0.32685760     0.03400
C188        C  0.65334871  0.04482400  0.35742642    -0.12800
C189        C  0.67870098  0.09398698  0.33665062     0.00900
C190        C  0.65273101  0.12331387  0.29048697    -0.11300
C191        C  0.60297976  0.10201247  0.26364829     0.03300
C192        C  0.58176123  0.04829605  0.28081594    -0.10700
H193        H  0.67400132  0.02283925  0.39372790     0.08900
H194        H  0.67199453  0.16161019  0.27432984     0.06500
H195        H  0.54647029  0.02960381  0.25716031     0.06300
O196        O  0.64691021  0.87795187  0.45525982    -0.74200
O197        O  0.66553129  0.83400665  0.29165137    -0.74200
O198        O  0.65336831  0.93160669  0.35057801    -0.74300
O199        O  0.66337142  0.77835291  0.39676055    -0.74300
O200        O  0.56850299  0.76905947  0.38840089    -0.74300
O201        O  0.55832370  0.92791515  0.33930181    -0.74200
O202        O  0.57030851  0.82720604  0.28566131    -0.74200
O203        O  0.55259769  0.86994395  0.44153018    -0.74300
Ni204      Ni  0.66069185  0.85550200  0.37404217     1.25400
Ni205      Ni  0.55926425  0.84810513  0.36344243     1.25400
C206        C  0.59511131  0.88193638  0.47464655     0.88000
C207        C  0.61927041  0.82518013  0.26143933     0.87900
C208        C  0.60548144  0.95606469  0.33836353     0.87900
C209        C  0.61871613  0.74752864  0.39935030     0.88100
O210        O  0.42113269  0.86598995  0.66695535    -0.74200
O211        O  0.26255414  0.81107199  0.67821423    -0.74200
O212        O  0.36941107  0.76416215  0.66617683    -0.74300
O213        O  0.31620789  0.91365799  0.68470110    -0.74300
O214        O  0.30573765  0.92558135  0.58964891    -0.74300
O215        O  0.36025446  0.76872028  0.57042305    -0.74200
O216        O  0.25638602  0.82109571  0.58251747    -0.74200
O217        O  0.40859988  0.87234369  0.57139031    -0.74300
Ni218      Ni  0.34264776  0.83835528  0.67730312     1.25400
Ni219      Ni  0.33221175  0.84736083  0.57515604     1.25400
C220        C  0.44059681  0.87710814  0.61611123     0.88000
C221        C  0.23334528  0.80773688  0.63045518     0.87900
C222        C  0.37342571  0.74063667  0.61715751     0.87900
C223        C  0.30350911  0.94557089  0.64145595     0.88100
C224        C  0.58017406  0.95903808  0.62151259     0.03400
C225        C  0.60651016  0.94031330  0.56956656    -0.12800
C226        C  0.57926915  0.89862677  0.53541071     0.00900
C227        C  0.52755135  0.87578557  0.55594635    -0.11300
C228        C  0.50040870  0.89515470  0.60551463     0.03300
C229        C  0.52689217  0.93648487  0.63798302    -0.10700
H230        H  0.64714941  0.95779019  0.55627513     0.08900
H231        H  0.50607331  0.84364649  0.53121707     0.06500
H232        H  0.50614888  0.95116824  0.67661630     0.06300
C233        C  0.28809560  0.00600125  0.65496093     0.03400
C234        C  0.30828884  0.02864883  0.70790669    -0.12800
C235        C  0.29234557  0.08296955  0.72691992     0.00900
C236        C  0.25675310  0.11558360  0.69127205    -0.11300
C237        C  0.23478365  0.09418318  0.63914385     0.03300
C238        C  0.25058559  0.03986547  0.62056623    -0.10700
H239        H  0.33635012  0.00305801  0.73549880     0.08900
H240        H  0.24299976  0.15639545  0.70583861     0.06500
H241        H  0.23216124  0.02352496  0.58107498     0.06300
O242        O  0.08014096  0.29968443  0.95825667    -0.74200
O243        O  0.06331826  0.44684348  0.87992955    -0.74200
O244        O  0.05106225  0.33581395  0.84892798    -0.74300
O245        O  0.08131313  0.40735189  0.98748153    -0.74300
O246        O  0.17611444  0.40643790  0.97548050    -0.74300
O247        O  0.14422460  0.33066392  0.82865859    -0.74200
O248        O  0.15716234  0.44117092  0.86322602    -0.74200
O249        O  0.17344697  0.30291217  0.93767009    -0.74300
Ni250      Ni  0.06545539  0.37252686  0.91870002     1.25400
Ni251      Ni  0.16597795  0.37088416  0.89980031     1.25400
C252        C  0.13172945  0.27880749  0.96151613     0.88000
C253        C  0.11058447  0.46935642  0.86253118     0.87900
C254        C  0.09110975  0.31792235  0.81741282     0.87900
C255        C  0.13173689  0.41397548  0.00747257     0.88100
C256        C  0.09866111  0.60588205  0.77564356     0.03400
C257        C  0.15435822  0.62837737  0.78738466    -0.12800
C258        C  0.19057895  0.60261919  0.82994592     0.00900
C259        C  0.16879632  0.55540054  0.85990224    -0.11300
C260        C  0.11701354  0.52913326  0.84407824     0.03300
C261        C  0.08113768  0.55572527  0.80321199    -0.10700
H262        H  0.16933861  0.66444376  0.76318825     0.08900
H263        H  0.19550738  0.53498078  0.89301022     0.06500
H264        H  0.04109161  0.53613027  0.79047800     0.06300
O265        O  0.92061061  0.30081183  0.10172076    -0.74200
O266        O  0.86359341  0.45579451  0.08789373    -0.74200
O267        O  0.97059425  0.40606332  0.09987485    -0.74300
O268        O  0.81755962  0.35189366  0.08526090    -0.74300
O269        O  0.80632692  0.35278165  0.18045718    -0.74300
O270        O  0.96655858  0.41014451  0.19550895    -0.74200
O271        O  0.85752333  0.45616488  0.18385080    -0.74200
O272        O  0.91281797  0.30686041  0.19712330    -0.74300
Ni273      Ni  0.89389375  0.37874571  0.09051260     1.25400
Ni274      Ni  0.88572284  0.38179719  0.19265484     1.25400
C275        C  0.92170447  0.27750552  0.15251099     0.88000
C276        C  0.84987220  0.48063535  0.13481587     0.87900
C277        C  0.99536495  0.41654149  0.14836998     0.87900
C278        C  0.78607591  0.34297995  0.12905236     0.88100
C279        C  0.74424536  0.60388910  0.13306253     0.03400
C280        C  0.77186486  0.55424936  0.11409083    -0.12800
C281        C  0.82636800  0.53876907  0.13671527     0.00900
C282        C  0.85226834  0.57382403  0.17706165    -0.11300
C283        C  0.81957263  0.61323956  0.20741113     0.03300
C284        C  0.76521470  0.62890780  0.18452362    -0.10700
H285        H  0.75360471  0.53106730  0.07844571     0.08900
H286        H  0.89427580  0.56147686  0.19443063     0.06500
H287        H  0.74150868  0.66281183  0.20386345     0.06300
C288        C  0.14408471  0.49403736  0.14529294     0.03400
C289        C  0.08943134  0.47720505  0.16849711    -0.12800
C290        C  0.05932031  0.43082441  0.14448256     0.00900
C291        C  0.08787832  0.40162259  0.10134882    -0.11300
C292        C  0.13270733  0.42612684  0.06982679     0.03300
C293        C  0.16243797  0.47079497  0.09329433    -0.10700
H294        H  0.07053461  0.50027968  0.20394485     0.08900
H295        H  0.06739958  0.36469618  0.08386115     0.06500
H296        H  0.19809991  0.48906961  0.07021454     0.06300
O297        O  0.43028006  0.07273864  0.84644650    -0.74200
O298        O  0.28599677  0.07614216  0.93774158    -0.74200
O299        O  0.31624116  0.05965931  0.82201488    -0.74300
O300        O  0.40020626  0.07084575  0.95694517    -0.74300
O301        O  0.39975573  0.16424694  0.95439758    -0.74300
O302        O  0.31704902  0.15130062  0.80409758    -0.74200
O303        O  0.28751747  0.16750602  0.91979453    -0.74200
O304        O  0.42370147  0.16593490  0.84233013    -0.74300
Ni305      Ni  0.35757567  0.06632324  0.89077115     1.25400
Ni306      Ni  0.35592691  0.16567465  0.87996159     1.25400
C307        C  0.45099825  0.12175763  0.83290097     0.88000
C308        C  0.26485418  0.12617435  0.94533781     0.87900
C309        C  0.30887483  0.10019344  0.78695952     0.87900
C310        C  0.41535404  0.11655655  0.97795605     0.88100
C311        C  0.57235207  0.13603072  0.72889880     0.03400
C312        C  0.60412605  0.18066517  0.75546698    -0.12800
C313        C  0.58749972  0.20188716  0.80986785     0.00900
C314        C  0.54186678  0.17379485  0.83730811    -0.11300
C315        C  0.50734824  0.13397130  0.80845305     0.03300
C316        C  0.51794061  0.12331488  0.75064665    -0.10700
H317        H  0.64257219  0.19638467  0.73544170     0.08900
H318        H  0.52889301  0.18744642  0.87969559     0.06500
H319        H  0.49077070  0.09347939  0.72845172     0.06300
O320        O  0.45607011  0.86081262  0.06374951    -0.74200
O321        O  0.29761182  0.92112017  0.08422964    -0.74200
O322        O  0.40742414  0.96363727  0.07396078    -0.74300
O323        O  0.34577299  0.82013459  0.06304851    -0.74300
O324        O  0.34637144  0.80828225  0.15873292    -0.74300
O325        O  0.42436702  0.95517078  0.16854865    -0.74200
O326        O  0.31326925  0.91487096  0.17914118    -0.74200
O327        O  0.45688832  0.84595359  0.15878751    -0.74300
Ni328      Ni  0.37630796  0.89199072  0.06783384     1.25400
Ni329      Ni  0.38560783  0.88078403  0.16971704     1.25400
C330        C  0.48271813  0.84439250  0.11081037     0.88000
C331        C  0.27924531  0.92531065  0.13682119     0.87900
C332        C  0.42843657  0.98329467  0.12030211     0.87900
C333        C  0.33391299  0.79078259  0.10730995     0.88100
C334        C  0.62724645  0.76288336  0.10794050     0.03400
C335        C  0.57465448  0.78662275  0.08564452    -0.12800
C336        C  0.54527402  0.82789918  0.11725655     0.00900
C337        C  0.57128758  0.84654612  0.16872852    -0.11300
C338        C  0.61666805  0.81768871  0.19674782     0.03300
C339        C  0.64630585  0.77669299  0.16504116    -0.10700
H340        H  0.55680221  0.77254654  0.04492787     0.08900
H341        H  0.55007250  0.87964709  0.19221511     0.06500
H342        H  0.68314426  0.75519609  0.18450367     0.06300
C343        C  0.53896026  0.09573633  0.08410351     0.03400
C344        C  0.51395523  0.05201099  0.11838966    -0.12800
C345        C  0.45439823  0.04015340  0.11182186     0.00900
C346        C  0.42200472  0.07576514  0.07452818    -0.11300
C347        C  0.44900885  0.10738873  0.03108426     0.03300
C348        C  0.50961485  0.10880350  0.03130543    -0.10700
H349        H  0.53961840  0.02980713  0.15088202     0.08900
H350        H  0.37590666  0.06919976  0.07068783     0.06500
H351        H  0.53052712  0.13408872  0.99856529     0.06300
O352        O  0.04976385  0.84214754  0.45996616    -0.74200
O353        O  0.07351205  0.90874438  0.30463660    -0.74200
O354        O  0.06141188  0.80338079  0.35191307    -0.74300
O355        O  0.05419540  0.94793837  0.41481745    -0.74300
O356        O  0.14847049  0.95185609  0.43097717    -0.74300
O357        O  0.15610558  0.79877535  0.36713699    -0.74200
O358        O  0.16760114  0.90577014  0.32299393    -0.74200
O359        O  0.14488389  0.84489779  0.47190874    -0.74300
Ni360      Ni  0.05644233  0.87597969  0.38204315     1.25400
Ni361      Ni  0.15762704  0.87549704  0.39848947     1.25400
C362        C  0.09550039  0.83286986  0.49117198     0.88000
C363        C  0.12594505  0.91624452  0.28790895     0.87900
C364        C  0.10816496  0.77544882  0.35190529     0.87900
C365        C  0.09776510  0.97429351  0.43439200     0.88100
C366        C  0.09271672  0.72593570  0.61409217     0.03400
C367        C  0.14573115  0.74189683  0.64082664    -0.12800
C368        C  0.17075482  0.79396095  0.62558491    -0.00500
C369        C  0.14031219  0.82930048  0.58687794    -0.11300
C370        C  0.09680812  0.80870164  0.55071352     0.03300
C371        C  0.07166025  0.75743334  0.56555606    -0.10700
H372        H  0.16631417  0.71501047  0.67321298     0.08900
H373        H  0.15897879  0.86959660  0.57574340     0.06500
H374        H  0.03564120  0.74224588  0.54012435     0.06300
O375        O  0.81847616  0.05330699  0.46776714    -0.74200
O376        O  0.87400202  0.07022887  0.30698189    -0.74200
O377        O  0.92129943  0.05994548  0.41377544    -0.74300
O378        O  0.76928478  0.05811801  0.35960358    -0.74300
O379        O  0.76060500  0.15095327  0.36465091    -0.74300
O380        O  0.91811708  0.15274226  0.42349958    -0.74200
O381        O  0.86688496  0.16221956  0.31807086    -0.74200
O382        O  0.81267635  0.14627984  0.47018245    -0.74300
Ni383      Ni  0.84561169  0.05701065  0.38659920     1.25400
Ni384      Ni  0.83926933  0.15623763  0.39416169     1.25400
C385        C  0.80845736  0.09878277  0.49580717     0.88000
C386        C  0.88097370  0.12073373  0.28710366     0.87900
C387        C  0.94520495  0.10557662  0.42752741     0.87900
C388        C  0.73904828  0.10263733  0.35419788     0.88100
C389        C  0.73333618  0.08931395  0.64311792     0.03400
C390        C  0.75346064  0.07071280  0.58882132    -0.12800
C391        C  0.79524351  0.10207496  0.55928620     0.00900
C392        C  0.81807517  0.14890843  0.58724586    -0.11300
C393        C  0.79183952  0.17361112  0.63531464     0.03300
C394        C  0.74947201  0.14276432  0.66381758    -0.10700
H395        H  0.73561977  0.03352339  0.56948542     0.08900
H396        H  0.85277531  0.17104492  0.56616400     0.06500
H397        H  0.72956439  0.15966938  0.70172544     0.06300
C398        C  0.06960535  0.10350731  0.53199158     0.03400
C399        C  0.01955113  0.12197369  0.50263567    -0.12800
C400        C  0.00418185  0.09990095  0.44973215     0.00900
C401        C  0.03895976  0.05913324  0.42511807    -0.11300
C402        C  0.08383224  0.03228369  0.45631488     0.03300
C403        C  0.10065994  0.05597704  0.51038951    -0.10700
H404        H  0.99271520  0.15427047  0.52104037     0.08900
H405        H  0.02546145  0.04262493  0.38362425     0.06500
H406        H  0.13662980  0.03825849  0.53478960     0.06300
C407        C  0.90607968  0.13598218  0.22896491     0.03400
C408        C  0.89919618  0.19236177  0.21044183    -0.12800
C409        C  0.92780623  0.21555905  0.16277293     0.00900
C410        C  0.96133222  0.17999339  0.12934953    -0.11300
C411        C  0.96816926  0.12263731  0.14499980     0.03300
C412        C  0.94109711  0.10077827  0.19533100    -0.10700
H413        H  0.87161790  0.21984885  0.23466462     0.08900
H414        H  0.98348870  0.19702848  0.09220632     0.06500
H415        H  0.94835403  0.05754377  0.20860513     0.06300
C416        C  0.12694002  0.98904559  0.13743073     0.03400
C417        C  0.18183172  0.97286269  0.11807315    -0.12800
C418        C  0.21821609  0.93932114  0.15280825     0.00900
C419        C  0.19741514  0.92053813  0.20712476    -0.11300
C420        C  0.14221215  0.93533692  0.22766330     0.03300
C421        C  0.10720940  0.97023949  0.19202291    -0.10700
H422        H  0.19730062  0.98857344  0.07724048     0.08900
H423        H  0.22496901  0.89389765  0.23416465     0.06500
H424        H  0.06536637  0.98350143  0.20681916     0.06300
C425        C  0.21290857  0.14377883  0.97992862     0.03400
C426        C  0.18261359  0.18996610  0.95585934    -0.12800
C427        C  0.14801980  0.22503078  0.98875095     0.00900
C428        C  0.13969426  0.21170206  0.04705049    -0.11300
C429        C  0.15249753  0.15637752  0.06617418     0.03300
C430        C  0.19821441  0.12742084  0.03727772    -0.10700
H431        H  0.19012523  0.20236888  0.91131521     0.08900
H432        H  0.11035159  0.23750601  0.07123120     0.06500
H433        H  0.21654407  0.08948700  0.05625009     0.06300
C434        C  0.15516714  0.22305872  0.58767428     0.86700
C435        C  0.20362306  0.17868238  0.58423989    -0.53500
C436        C  0.18972522  0.12805607  0.60959123     0.09600
C437        C  0.12709066  0.12675258  0.63177479     0.20600
C438        C  0.10266874  0.19572173  0.55925744    -0.54200
C439        C  0.09188481  0.14239652  0.57725163     0.09700
C440        C  0.14674161  0.22493681  0.65087942    -0.53800
C441        C  0.12315249  0.17824146  0.67396245     0.10300
H442        H  0.24719450  0.18923211  0.57263898     0.14800
H443        H  0.11499041  0.08606058  0.65185325     0.00600
H444        H  0.08116110  0.21429543  0.52179207     0.15100
H445        H  0.15161905  0.26344253  0.67446563     0.14900
C446        C  0.50374169  0.20691996  0.18216459     0.86700
C447        C  0.55422847  0.24798555  0.18211226    -0.53500
C448        C  0.60589632  0.22414335  0.16698694     0.09600
C449        C  0.60222971  0.15804697  0.16192588     0.20600
C450        C  0.50906046  0.18011282  0.12426988    -0.54200
C451        C  0.55554655  0.14795312  0.11500035     0.09700
C452        C  0.52313984  0.16360901  0.22867818    -0.53800
C453        C  0.57408347  0.13759658  0.21850189     0.10300
H454        H  0.54941510  0.29285724  0.18630833     0.14800
H455        H  0.64421721  0.13770801  0.15319128     0.00600
H456        H  0.47347566  0.18310638  0.09375304     0.15100
H457        H  0.50050104  0.15728926  0.26850254     0.14900
C458        C  0.51004060  0.48016701  0.51534072     0.86700
C459        C  0.55531630  0.46333432  0.55966327    -0.53500
C460        C  0.58179038  0.50508837  0.58717668     0.09600
C461        C  0.56081520  0.56417927  0.56702522     0.20600
C462        C  0.46828303  0.51936662  0.54669049    -0.54200
C463        C  0.49394051  0.56313379  0.57449019     0.09700
C464        C  0.54062201  0.52083837  0.47355806    -0.53800
C465        C  0.56933915  0.56339161  0.50023789     0.10300
H466        H  0.56595041  0.41953452  0.56945142     0.14800
H467        H  0.58291181  0.59892577  0.58940146     0.00600
H468        H  0.42211482  0.51285662  0.54738615     0.15100
H469        H  0.54035405  0.51669155  0.42692872     0.14900
C470        C  0.26809395  0.57354076  0.22307858     0.86700
C471        C  0.23670365  0.52365718  0.19401321    -0.53500
C472        C  0.18273758  0.53687826  0.17157555     0.09600
C473        C  0.16800949  0.59977450  0.17519233     0.20600
C474        C  0.27120060  0.61736722  0.17718215    -0.54200
C475        C  0.22146358  0.63077548  0.14995235     0.09700
C476        C  0.22369399  0.59545025  0.26581031    -0.53800
C477        C  0.17151846  0.60935011  0.24120570     0.10300
H478        H  0.25449950  0.48149805  0.19313682     0.14800
H479        H  0.12627767  0.61194737  0.15444017     0.00600
H480        H  0.31220658  0.63535572  0.16443489     0.15100
H481        H  0.23205088  0.59904155  0.31190487     0.14900
C482        C  0.30299276  0.33263522  0.32537191    -0.02300
C483        C  0.36033770  0.48241614  0.35104199    -0.05200
C484        C  0.41676470  0.48374372  0.33123963     0.08900
C485        C  0.44148653  0.43159545  0.31841200    -0.02600
C486        C  0.40668876  0.38271745  0.31465900    -0.00900
C487        C  0.34523018  0.38569687  0.32212107    -0.04500
C488        C  0.32376407  0.44188559  0.32915532     0.02500
C489        C  0.43372020  0.53473407  0.29601026     0.09400
C490        C  0.50200230  0.42969417  0.30401054     0.35300
C491        C  0.26534561  0.46037645  0.31632103     0.38700
C492        C  0.40942059  0.58590665  0.31266631    -0.04900
C493        C  0.35484762  0.60093588  0.28855408     0.02300
C494        C  0.33016222  0.56566025  0.24532893    -0.04500
C495        C  0.37157854  0.53757961  0.21133901    -0.00700
C496        C  0.42640349  0.52635531  0.23626300    -0.03300
C497        C  0.43540786  0.61641937  0.35956441     0.36000
C498        C  0.36122120  0.52768257  0.15033724     0.39600
C499        C  0.32840367  0.65356405  0.30406605     0.38700
C500        C  0.47447299  0.50884410  0.20194018     0.35700
C501        C  0.33891158  0.52302075  0.39161570     0.36400
C502        C  0.43398399  0.33570372  0.28855822     0.39600
N503        N  0.30760152  0.69599910  0.31577063    -0.38500
N504        N  0.45591568  0.64116120  0.39709833    -0.40100
N505        N  0.35329367  0.52008046  0.10158010    -0.37800
N506        N  0.51305329  0.49531436  0.17429109    -0.40200
N507        N  0.55003421  0.42788849  0.29177409    -0.40000
N508        N  0.46049900  0.30075212  0.26750560    -0.37600
N509        N  0.21859799  0.47632009  0.30918830    -0.38600
N510        N  0.32161068  0.55481114  0.42444965    -0.40300
C511        C  0.49892237  0.34022521  0.43309744    -0.05200
C512        C  0.45672557  0.31126599  0.46533721     0.08900
C513        C  0.44493446  0.33240911  0.52062109    -0.02600
C514        C  0.45529596  0.38911075  0.53287231    -0.00900
C515        C  0.48711094  0.42357075  0.49373900    -0.04500
C516        C  0.51650548  0.39434238  0.44960156     0.02500
C517        C  0.41901534  0.26603714  0.43972643     0.09400
C518        C  0.43137202  0.29469518  0.56817489     0.35300
C519        C  0.57094669  0.41456483  0.42775201     0.38700
C520        C  0.36297902  0.25799205  0.46029061    -0.04900
C521        C  0.31623472  0.26537237  0.41987477     0.02300
C522        C  0.33116815  0.28226853  0.36278648    -0.04500
C523        C  0.37744057  0.24864869  0.34481076    -0.00700
C524        C  0.42607338  0.24581244  0.38339937    -0.03300
C525        C  0.35831125  0.21683889  0.50699535     0.36000
C526        C  0.35983585  0.19667198  0.31951480     0.39600
C527        C  0.27142199  0.22408210  0.42581486     0.38700
C528        C  0.47103386  0.20436294  0.37692851     0.35700
C529        C  0.53143996  0.31258120  0.38873306     0.36400
C530        C  0.43756405  0.40921808  0.58893573     0.39600
N531        N  0.24082931  0.18700729  0.43494820    -0.38500
N532        N  0.35476973  0.18253282  0.54271156    -0.40100
N533        N  0.34176302  0.15393507  0.30544275    -0.37800
N534        N  0.50778375  0.17155030  0.37472496    -0.40200
N535        N  0.42258635  0.26611758  0.60795664    -0.40000
N536        N  0.42342471  0.42424040  0.63389452    -0.37600
N537        N  0.61488422  0.42960733  0.41076464    -0.38600
N538        N  0.55989434  0.29259235  0.35389198    -0.40300
C539        C  0.23648593  0.24458493  0.19927364    -0.05200
C540        C  0.26630658  0.26651789  0.15241245     0.08900
C541        C  0.27175258  0.32427798  0.15816529    -0.02600
C542        C  0.29720120  0.34230140  0.21023714    -0.00900
C543        C  0.28755893  0.31060772  0.26310814    -0.04500
C544        C  0.25196234  0.26186971  0.25553930     0.02500
C545        C  0.32304446  0.23760509  0.13972177     0.09400
C546        C  0.26606027  0.36102769  0.10809544     0.35300
C547        C  0.22205355  0.23380732  0.30128032     0.38700
C548        C  0.36758553  0.26896731  0.11527004    -0.04900
C549        C  0.42216471  0.26898208  0.14197738     0.02300
C550        C  0.43923347  0.22367469  0.18004644    -0.04500
C551        C  0.39719771  0.17989095  0.18764072    -0.00700
C552        C  0.33960233  0.18763045  0.16861765    -0.03300
C553        C  0.35887767  0.29541643  0.05895061     0.36000
C554        C  0.41220956  0.12466398  0.21095758     0.39600
C555        C  0.46148750  0.31226109  0.12335908     0.38700
C556        C  0.29859654  0.14222917  0.17409961     0.35700
C557        C  0.18348735  0.21473794  0.18936867     0.36400
C558        C  0.34009764  0.38453210  0.20267848     0.39600
N559        N  0.49116760  0.34791502  0.10754336    -0.38500
N560        N  0.35302261  0.31558689  0.01336007    -0.40100
N561        N  0.42258347  0.08076163  0.23071771    -0.37800
N562        N  0.26669956  0.10546592  0.17865887    -0.40200
N563        N  0.26341834  0.39074679  0.06813987    -0.40000
N564        N  0.37716400  0.41471423  0.19220250    -0.37600
N565        N  0.19223558  0.20737605  0.33007774    -0.38600
N566        N  0.13966002  0.19239795  0.18584941    -0.40300
C567        C  0.16408839  0.29736731  0.46310469    -0.05200
C568        C  0.13515453  0.34867013  0.46654417     0.08900
C569        C  0.11535802  0.36458033  0.52100008    -0.02600
C570        C  0.12543521  0.32774552  0.56900807    -0.00900
C571        C  0.16344034  0.28051795  0.56191815    -0.04500
C572        C  0.19487131  0.28028644  0.51272885     0.02500
C573        C  0.15294697  0.39055407  0.42339991     0.09400
C574        C  0.08919668  0.41921946  0.52720751     0.35300
C575        C  0.24937174  0.30520481  0.52691062     0.38700
C576        C  0.14285137  0.37564884  0.36633717    -0.04900
C577        C  0.18937353  0.35845129  0.33197978     0.02300
C578        C  0.24692370  0.35330080  0.35767785    -0.04500
C579        C  0.25420584  0.38112001  0.41240695    -0.00700
C580        C  0.20766759  0.40959533  0.43665570    -0.03300
C581        C  0.08409725  0.37787697  0.34449938     0.36000
C582        C  0.30968078  0.38953853  0.43973799     0.39600
C583        C  0.17636159  0.35724250  0.27057238     0.38700
C584        C  0.21528817  0.44915265  0.48295467     0.35700
C585        C  0.13181571  0.25554172  0.43253396     0.36400
C586        C  0.11193218  0.34826834  0.62541513     0.39600
N587        N  0.16259603  0.35793218  0.22225530    -0.38500
N588        N  0.03733957  0.38046056  0.32666971    -0.40100
N589        N  0.35328265  0.39991627  0.46128637    -0.37800
N590        N  0.22144803  0.48133727  0.51933965    -0.40200
N591        N  0.06970110  0.46365529  0.53081393    -0.40000
N592        N  0.10363851  0.36906202  0.66930375    -0.37600
N593        N  0.29136342  0.32478791  0.54455416    -0.38600
N594        N  0.10374325  0.22248908  0.40960716    -0.40300
C595        C  0.83836414  0.80744586  0.79142984    -0.05200
C596        C  0.83588871  0.79342687  0.73296731     0.08900
C597        C  0.87474708  0.82139457  0.69556745    -0.02600
C598        C  0.92535384  0.84575878  0.71779458    -0.00900
C599        C  0.93029224  0.85954974  0.77729423    -0.04500
C600        C  0.88359317  0.84043662  0.81307531     0.02500
C601        C  0.80344506  0.74092461  0.71544594     0.09400
C602        C  0.86079080  0.83075066  0.63462607     0.35300
C603        C  0.87985775  0.85239635  0.87361248     0.38700
C604        C  0.81394919  0.72357471  0.65940010    -0.04900
C605        C  0.86945518  0.70145416  0.65056323     0.02300
C606        C  0.90252249  0.68325714  0.70092470    -0.04500
C607        C  0.86897787  0.66858653  0.74958426    -0.00700
C608        C  0.81458038  0.69523689  0.75365650    -0.03300
C609        C  0.77275763  0.73525634  0.61327539     0.36000
C610        C  0.88135004  0.61742925  0.78187548     0.39600
C611        C  0.89162190  0.70096783  0.59254633     0.38700
C612        C  0.76713783  0.66865105  0.78248259     0.35700
C613        C  0.79238086  0.78962493  0.82953274     0.36400
C614        C  0.97197088  0.84968963  0.67792384     0.39600
N615        N  0.91033103  0.70312598  0.54658753    -0.38500
N616        N  0.73958269  0.74437690  0.57641727    -0.40100
N617        N  0.89034456  0.57502890  0.80541440    -0.37800
N618        N  0.72861543  0.64722636  0.80462402    -0.40200
N619        N  0.85029690  0.83957281  0.58621726    -0.40000
N620        N  0.00623933  0.84783166  0.64237953    -0.37600
N621        N  0.87060324  0.86081800  0.92152774    -0.38600
N622        N  0.75631330  0.77608204  0.86058520    -0.40300
C623        C  0.01637637  0.81556537  0.95206057    -0.05200
C624        C  0.98656870  0.76729611  0.93556998     0.08900
C625        C  0.00311016  0.74929188  0.88065354    -0.02600
C626        C  0.00959973  0.79081839  0.83672932    -0.00900
C627        C  0.00641510  0.84821464  0.85174946    -0.04500
C628        C  0.02911570  0.85611229  0.90835560     0.02500
C629        C  0.92953613  0.74874644  0.96227430     0.09400
C630        C  0.04259725  0.70240508  0.88190178     0.35300
C631        C  0.07750073  0.89230542  0.91817576     0.38700
C632        C  0.90049448  0.70089113  0.94143448    -0.04900
C633        C  0.84091855  0.69296947  0.95054535     0.02300
C634        C  0.80871538  0.72963339  0.98645727    -0.04500
C635        C  0.84192732  0.76924516  0.01814489    -0.00700
C636        C  0.90035073  0.77991558  0.00516409    -0.03300
C637        C  0.93313927  0.65379232  0.91999504     0.36000
C638        C  0.81910078  0.79558465  0.06927918     0.39600
C639        C  0.81603751  0.64147408  0.92902222     0.38700
C640        C  0.92830215  0.82370393  0.03777311     0.35700
C641        C  0.04887929  0.81323517  0.00603551     0.36400
C642        C  0.03646494  0.77742920  0.78310409     0.39600
N643        N  0.79763552  0.59976535  0.91214444    -0.38500
N644        N  0.95735296  0.61411818  0.90522298    -0.40100
N645        N  0.80250351  0.81655216  0.11064980    -0.37800
N646        N  0.94728227  0.85883857  0.06602914    -0.40200
N647        N  0.07503052  0.66559791  0.88629244    -0.40000
N648        N  0.06197639  0.76912191  0.74169041    -0.37600
N649        N  0.11791204  0.91810861  0.92906829    -0.38600
N650        N  0.07501803  0.81129736  0.04903754    -0.40300
C651        C  0.74108165  0.02033790  0.88175036    -0.05200
C652        C  0.78274037  0.98932757  0.85197035     0.08900
C653        C  0.76383393  0.94280236  0.81857430    -0.02600
C654        C  0.70550932  0.92972539  0.81815950    -0.00900
C655        C  0.66882370  0.97566575  0.82142534    -0.04500
C656        C  0.68279169  0.01111985  0.86802658     0.02500
C657        C  0.84449493  0.00414023  0.85532138     0.09400
C658        C  0.79162542  0.92755242  0.76610957     0.35300
C659        C  0.63793580  0.03249696  0.90439667     0.38700
C660        C  0.87854307  0.98237189  0.90005097    -0.04900
C661        C  0.93363775  0.96025245  0.88754860     0.02300
C662        C  0.94773555  0.94788666  0.82801371    -0.04500
C663        C  0.91459781  0.98168386  0.78608781    -0.00700
C664        C  0.87175707  0.01794283  0.80477432    -0.03300
C665        C  0.85519554  0.97928147  0.95801687     0.36000
C666        C  0.91229211  0.97377103  0.72394169     0.39600
C667        C  0.96808447  0.94919871  0.93833235     0.38700
C668        C  0.85084544  0.06443098  0.76984530     0.35700
C669        C  0.75719025  0.06379530  0.92160149     0.36400
C670        C  0.68477274  0.87726921  0.79554900     0.39600
N671        N  0.98913439  0.94321986  0.98366188    -0.38500
N672        N  0.83695596  0.97627375  0.00421091    -0.40100
N673        N  0.90861669  0.97007473  0.67412725    -0.37800
N674        N  0.83641999  0.10338207  0.74303216    -0.40200
N675        N  0.80495683  0.91795481  0.71943922    -0.40000
N676        N  0.66790780  0.83534696  0.77770043    -0.37600
N677        N  0.60203328  0.04946429  0.93357521    -0.38600
N678        N  0.76964147  0.09856764  0.95361072    -0.40300
C679        C  0.10629292  0.97425313  0.80530038    -0.05200
C680        C  0.06840946  0.02034169  0.78992999     0.08900
C681        C  0.03224800  0.01153226  0.74208902    -0.02600
C682        C  0.02742808  0.95640866  0.72254523    -0.00900
C683        C  0.03376329  0.91310452  0.76556865    -0.04500
C684        C  0.08823533  0.91934500  0.79201839     0.02500
C685        C  0.06111225  0.07116449  0.82657147     0.09400
C686        C  0.00964734  0.05745534  0.70688239     0.35300
C687        C  0.12697247  0.87187220  0.79901133     0.38700
C688        C  0.10472676  0.07873192  0.86561583    -0.04900
C689        C  0.09755479  0.05504514  0.92047271     0.02300
C690        C  0.04119880  0.05695605  0.94601503    -0.04500
C691        C  0.99623505  0.07848428  0.90866551    -0.00700
C692        C  0.00625701  0.08410554  0.84807129    -0.03300
C693        C  0.15640677  0.10491135  0.84574033     0.36000
C694        C  0.94355815  0.10128450  0.93118877     0.39600
C695        C  0.14852789  0.03401397  0.95016612     0.38700
C696        C  0.97101417  0.12235019  0.81351014     0.35700
C697        C  0.16531726  0.98208965  0.82417866     0.36400
C698        C  0.05422770  0.94998981  0.66695488     0.39600
N699        N  0.18930715  0.01446940  0.97177124    -0.38500
N700        N  0.19568978  0.12803066  0.82738193    -0.40100
N701        N  0.90120008  0.12088544  0.94732476    -0.37800
N702        N  0.94445255  0.15531065  0.78704467    -0.40200
N703        N  0.98972680  0.09227130  0.67735661    -0.40000
N704        N  0.07644324  0.94705829  0.62267302    -0.37600
N705        N  0.15881288  0.83471845  0.80558347    -0.38600
N706        N  0.21292793  0.98664778  0.83857722    -0.40300
loop_ 
_geom_bond_atom_site_label_1 
_geom_bond_atom_site_label_2 
_geom_bond_distance 
_geom_bond_site_symmetry_2 
_ccdc_geom_bond_type 
C1            C2   1.548   1_455  S
C1            C7   1.551       .  S
C1            C5   1.500       .  S
C1          C690   1.555   1_554  S
C2            H9   1.080       .  S
C2            C3   1.388   1_655  D
C3            C4   1.569       .  S
C3          C411   1.491   1_455  S
C4            C8   1.528       .  S
C4            C6   1.546       .  S
C4           H10   1.109       .  S
C5           H11   1.086   1_554  S
C5            C6   1.336       .  D
C6          C429   1.486       .  S
C7           H12   1.084   1_545  S
C7            C8   1.361       .  D
C8          C416   1.481   1_545  S
C13          C14   1.558       .  S
C13          C19   1.529   1_545  S
C13          C17   1.493       .  S
C13         C655   1.548   1_545  S
C14          H21   1.074       .  S
C14          C15   1.374       .  D
C15          C16   1.528       .  S
C15         C389   1.483       .  S
C16          C20   1.565   1_545  S
C16          C18   1.558       .  S
C16          H22   1.110       .  S
C17          H23   1.077       .  S
C17          C18   1.352       .  D
C18         C311   1.475       .  S
C19          H24   1.083       .  S
C19          C20   1.365       .  D
C20         C224   1.497       .  S
C25          C26   1.544   1_554  S
C25          C31   1.509       .  S
C25          C29   1.551       .  S
C25         C634   1.561   1_554  S
C26          H33   1.084       .  S
C26          C27   1.370       .  D
C27          C28   1.568   1_556  S
C27         C116   1.502       .  S
C28          C32   1.552       .  S
C28          C30   1.564       .  S
C28          H34   1.110       .  S
C29          H35   1.084       .  S
C29          C30   1.374       .  D
C30         C334   1.507       .  S
C31          H36   1.091       .  S
C31          C32   1.342       .  D
C32         C279   1.478       .  S
C37          C38   1.475       .  S
C37          C43   1.529       .  S
C37          C41   1.542   1_655  S
C37         C606   1.519       .  S
C38          H45   1.090       .  S
C38          C39   1.347   1_655  D
C39          C40   1.562       .  S
C39         C173   1.460       .  S
C40          C44   1.548       .  S
C40          C42   1.551       .  S
C40          H46   1.110       .  S
C41          H47   1.080   1_455  S
C41          C42   1.383       .  D
C42         C256   1.481       .  S
C43          H48   1.076       .  S
C43          C44   1.361   1_655  D
C44         C366   1.496       .  S
C49         C599   1.596       .  S
C49         C627   1.597   1_655  S
C49         C662   1.607       .  S
C49         C683   1.607   1_655  S
C50         C465   1.492       .  S
C50          C51   1.417       .  A
C50          C55   1.428       .  A
C51          C52   1.407       .  A
C51          H56   1.083       .  S
C52          C53   1.407       .  A
C52         C209   1.505       .  S
C53          C54   1.416       .  A
C53          H57   1.085       .  S
C54          C55   1.411       .  A
C54         C153   1.512       .  S
C55          H58   1.084       .  S
C59         C463   1.503       .  S
C59          C60   1.432       .  A
C59          C64   1.425       .  A
C60          C61   1.420       .  A
C60          H65   1.083       .  S
C61          C62   1.402       .  A
C61         C222   1.512       .  S
C62          C63   1.404       .  A
C62          H66   1.087       .  S
C63          C64   1.408       .  A
C63          C99   1.500       .  S
C64          H67   1.083       .  S
C68         C475   1.474       .  S
C68          C69   1.427       .  A
C68          C73   1.421       .  A
C69          C70   1.412       .  A
C69          H74   1.083       .  S
C70          C71   1.406       .  A
C70          C98   1.498   1_554  S
C71          C72   1.404       .  A
C71          H75   1.086       .  S
C72          C73   1.403       .  A
C72         C333   1.483       .  S
C73          H76   1.084       .  S
C77         C448   1.500       .  S
C77          C78   1.424       .  A
C77          C82   1.423       .  A
C78          C79   1.417       .  A
C78          H83   1.083       .  S
C79          C80   1.416       .  A
C79         C278   1.515       .  S
C80          C81   1.412       .  A
C80          H84   1.084       .  S
C81          C82   1.402       .  A
C81         C111   1.509   1_554  S
C82          H85   1.083       .  S
O86         Ni94   2.000       .  S
O86          C96   1.299       .  A
O87         Ni94   2.007       .  S
O87          C97   1.300       .  A
O88         Ni94   1.871       .  S
O88          C98   1.269       .  A
O89         Ni94   1.869       .  S
O89          C99   1.271       .  A
O90         Ni95   1.989       .  S
O90          C99   1.295       .  A
O91         Ni95   1.991       .  S
O91          C98   1.298       .  A
O92         Ni95   1.873       .  S
O92          C97   1.271       .  A
O93         Ni95   1.894       .  S
O93          C96   1.274       .  A
Ni94        Ni95   2.373       .  S
C96         C114   1.517       .  S
C97         C258   1.516       .  S
O100       Ni108   1.989       .  S
O100        C110   1.297       .  A
O101       Ni108   1.991       .  S
O101        C111   1.298       .  A
O102       Ni108   1.881       .  S
O102        C112   1.271       .  A
O103       Ni108   1.891       .  S
O103        C113   1.272       .  A
O104       Ni109   2.019       .  S
O104        C113   1.304       .  A
O105       Ni109   2.012       .  S
O105        C112   1.302       .  A
O106       Ni109   1.890       .  S
O106        C111   1.271       .  A
O107       Ni109   1.858       .  S
O107        C110   1.266       .  A
Ni108      Ni109   2.373       .  S
C110        C123   1.487       .  S
C112        C118   1.522       .  S
C113        C313   1.528       .  S
C114        C115   1.413       .  A
C114        C119   1.413       .  A
C115        C116   1.425       .  A
C115        H120   1.083       .  S
C116        C117   1.430       .  A
C117        C118   1.413       .  A
C117        H121   1.083       .  S
C118        C119   1.416       .  A
C119        H122   1.085       .  S
C123        C124   1.404       .  A
C123        C128   1.409       .  A
C124        C125   1.418       .  A
C124        H129   1.084       .  S
C125        C460   1.472       .  S
C125        C126   1.425       .  A
C126        C127   1.408       .  A
C126        H130   1.083       .  S
C127        C128   1.410       .  A
C127        C167   1.494       .  S
C128        H131   1.087       .  S
C132        C477   1.477       .  S
C132        C133   1.427       .  A
C132        C137   1.410       .  A
C133        C134   1.413       .  A
C133        H138   1.091       .  S
C134        C135   1.424       .  A
C134        C154   1.523   1_455  S
C135        C136   1.408       .  A
C135        H139   1.083       .  S
C136        C137   1.388       .  A
C136        C364   1.496       .  S
C137        H140   1.084       .  S
O141       Ni149   1.981       .  S
O141        C151   1.297       .  A
O142       Ni149   1.988       .  S
O142        C152   1.296       .  A
O143       Ni149   1.864       .  S
O143        C153   1.266       .  A
O144       Ni149   1.856       .  S
O144        C154   1.264       .  A
O145       Ni150   2.025       .  S
O145        C154   1.306       .  A
O146       Ni150   2.012       .  S
O146        C153   1.303       .  A
O147       Ni150   1.841       .  S
O147        C152   1.265       .  A
O148       Ni150   1.862       .  S
O148        C151   1.262       .  A
Ni149      Ni150   2.371       .  S
C151        C171   1.484       .  S
C152        C283   1.486       .  S
O155       Ni163   2.004       .  S
O155        C165   1.300       .  A
O156       Ni163   2.001       .  S
O156        C166   1.303       .  A
O157       Ni163   1.858       .  S
O157        C167   1.265       .  A
O158       Ni163   1.838       .  S
O158        C168   1.260       .  A
O159       Ni164   2.004       .  S
O159        C168   1.302       .  A
O160       Ni164   1.996       .  S
O160        C167   1.299       .  A
O161       Ni164   1.856       .  S
O161        C166   1.261       .  A
O162       Ni164   1.849       .  S
O162        C165   1.264       .  A
Ni163      Ni164   2.377       .  S
C165        C393   1.505       .  S
C166        C169   1.490       .  S
C168        C180   1.489   1_655  S
C169        C170   1.412       .  A
C169        C174   1.408       .  A
C170        C171   1.410       .  A
C170        H175   1.085       .  S
C171        C172   1.402       .  A
C172        C173   1.416   1_655  A
C172        H176   1.084   1_655  S
C173        C174   1.424   1_455  A
C174        H177   1.084       .  S
C178        C441   1.484       .  S
C178        C179   1.428       .  A
C178        C183   1.426       .  A
C179        C180   1.402       .  A
C179        H184   1.081       .  S
C180        C181   1.410       .  A
C181        C182   1.399       .  A
C181        H185   1.086       .  S
C182        C183   1.404       .  A
C182        C254   1.491       .  S
C183        H186   1.082       .  S
C187        C188   1.400       .  A
C187        C192   1.417       .  A
C187        C208   1.503   1_545  S
C188        C189   1.398       .  A
C188        H193   1.086       .  S
C189        C190   1.394       .  A
C189        C388   1.471       .  S
C190        C191   1.407       .  A
C190        H194   1.084       .  S
C191        C453   1.484       .  S
C191        C192   1.429       .  A
C192        H195   1.082       .  S
O196       Ni204   1.993       .  S
O196        C206   1.295       .  A
O197       Ni204   1.987       .  S
O197        C207   1.294       .  A
O198       Ni204   1.893       .  S
O198        C208   1.279       .  A
O199       Ni204   1.907       .  S
O199        C209   1.279       .  A
O200       Ni205   1.973       .  S
O200        C209   1.292       .  A
O201       Ni205   1.976       .  S
O201        C208   1.290       .  A
O202       Ni205   1.896       .  S
O202        C207   1.278       .  A
O203       Ni205   1.897       .  S
O203        C206   1.278       .  A
Ni204      Ni205   2.375       .  S
C206        C226   1.518       .  S
C207        C338   1.511       .  S
O210       Ni218   1.962       .  S
O210        C220   1.291       .  A
O211       Ni218   1.978       .  S
O211        C221   1.291       .  A
O212       Ni218   1.896       .  S
O212        C222   1.278       .  A
O213       Ni218   1.907       .  S
O213        C223   1.276       .  A
O214       Ni219   1.997       .  S
O214        C223   1.299       .  A
O215       Ni219   1.988       .  S
O215        C222   1.294       .  A
O216       Ni219   1.885       .  S
O216        C221   1.276       .  A
O217       Ni219   1.881       .  S
O217        C220   1.272       .  A
Ni218      Ni219   2.377       .  S
C220        C228   1.482       .  S
C221        C368   1.497       .  S
C223        C233   1.523   1_565  S
C224        C225   1.434       .  A
C224        C229   1.410       .  A
C225        C226   1.427       .  A
C225        H230   1.083       .  S
C226        C227   1.410       .  A
C227        C228   1.402       .  A
C227        H231   1.085       .  S
C228        C229   1.391       .  A
C229        H232   1.085       .  S
C233        C234   1.421       .  A
C233        C238   1.411       .  A
C234        C235   1.425       .  A
C234        H239   1.083       .  S
C235        C236   1.385       .  A
C235        C309   1.500       .  S
C236        C237   1.407       .  A
C236        H240   1.084       .  S
C237        C436   1.471       .  S
C237        C238   1.421       .  A
C238        H241   1.083       .  S
O242       Ni250   1.976       .  S
O242        C252   1.296       .  A
O243       Ni250   1.974       .  S
O243        C253   1.294       .  A
O244       Ni250   1.876       .  S
O244        C254   1.268       .  A
O245       Ni250   1.841       .  S
O245        C255   1.265   1_556  A
O246       Ni251   1.970       .  S
O246        C255   1.293   1_556  A
O247       Ni251   1.980       .  S
O247        C254   1.297       .  A
O248       Ni251   1.874       .  S
O248        C253   1.270       .  A
O249       Ni251   1.836       .  S
O249        C252   1.261       .  A
Ni250      Ni251   2.385       .  S
C252        C427   1.465       .  S
C253        C260   1.492       .  S
C255        C292   1.476       .  S
C256        C257   1.429       .  A
C256        C261   1.413       .  A
C257        C258   1.415       .  A
C257        H262   1.082       .  S
C258        C259   1.414       .  A
C259        C260   1.408       .  A
C259        H263   1.085       .  S
C260        C261   1.392       .  A
C261        H264   1.084       .  S
O265       Ni273   1.968       .  S
O265        C275   1.291       .  A
O266       Ni273   1.964       .  S
O266        C276   1.289       .  A
O267       Ni273   1.914       .  S
O267        C277   1.282       .  A
O268       Ni273   1.894       .  S
O268        C278   1.275       .  A
O269       Ni274   1.994       .  S
O269        C278   1.298       .  A
O270       Ni274   2.003       .  S
O270        C277   1.296       .  A
O271       Ni274   1.894       .  S
O271        C276   1.276       .  A
O272       Ni274   1.893       .  S
O272        C275   1.276       .  A
Ni273      Ni274   2.376       .  S
C275        C409   1.499       .  S
C276        C281   1.489       .  S
C277        C290   1.532   1_655  S
C279        C280   1.423       .  A
C279        C284   1.422       .  A
C280        C281   1.408       .  A
C280        H285   1.084       .  S
C281        C282   1.396       .  A
C282        C283   1.409       .  A
C282        H286   1.087       .  S
C283        C284   1.408       .  A
C284        H287   1.083       .  S
C288        C472   1.497       .  S
C288        C289   1.445       .  A
C288        C293   1.405       .  A
C289        C290   1.430       .  A
C289        H294   1.092       .  S
C290        C291   1.400       .  A
C291        C292   1.407       .  A
C291        H295   1.086       .  S
C292        C293   1.388       .  A
C293        H296   1.084       .  S
O297       Ni305   1.997       .  S
O297        C307   1.304       .  A
O298       Ni305   2.017       .  S
O298        C308   1.304       .  A
O299       Ni305   1.855       .  S
O299        C309   1.261       .  A
O300       Ni305   1.815       .  S
O300        C310   1.253       .  A
O301       Ni306   1.986       .  S
O301        C310   1.300       .  A
O302       Ni306   1.997       .  S
O302        C309   1.303       .  A
O303       Ni306   1.852       .  S
O303        C308   1.264       .  A
O304       Ni306   1.813       .  S
O304        C307   1.251       .  A
Ni305      Ni306   2.380       .  S
C307        C315   1.465       .  S
C308        C425   1.520       .  S
C310        C347   1.459   1_556  S
C311        C312   1.442       .  A
C311        C316   1.402       .  A
C312        C313   1.423       .  A
C312        H317   1.080       .  S
C313        C314   1.413       .  A
C314        C315   1.417       .  A
C314        H318   1.085       .  S
C315        C316   1.391       .  A
C316        H319   1.086       .  S
O320       Ni328   1.997       .  S
O320        C330   1.297       .  A
O321       Ni328   1.997       .  S
O321        C331   1.301       .  A
O322       Ni328   1.869       .  S
O322        C332   1.270       .  A
O323       Ni328   1.865       .  S
O323        C333   1.266       .  A
O324       Ni329   1.981       .  S
O324        C333   1.297       .  A
O325       Ni329   1.997       .  S
O325        C332   1.298       .  A
O326       Ni329   1.880       .  S
O326        C331   1.269       .  A
O327       Ni329   1.871       .  S
O327        C330   1.271       .  A
Ni328      Ni329   2.374       .  S
C330        C336   1.508       .  S
C331        C418   1.509       .  S
C332        C345   1.501   1_565  S
C334        C335   1.429       .  A
C334        C339   1.431       .  A
C335        C336   1.415       .  A
C335        H340   1.083       .  S
C336        C337   1.407       .  A
C337        C338   1.400       .  A
C337        H341   1.086       .  S
C338        C339   1.415       .  A
C339        H342   1.083       .  S
C343        C451   1.497       .  S
C343        C344   1.432       .  A
C343        C348   1.418       .  A
C344        C345   1.422       .  A
C344        H349   1.081       .  S
C345        C346   1.407       .  A
C346        C347   1.406       .  A
C346        H350   1.087       .  S
C347        C348   1.410       .  A
C348        H351   1.084   1_554  S
O352       Ni360   1.972       .  S
O352        C362   1.291       .  A
O353       Ni360   1.989       .  S
O353        C363   1.298       .  A
O354       Ni360   1.882       .  S
O354        C364   1.271       .  A
O355       Ni360   1.890       .  S
O355        C365   1.277       .  A
O356       Ni361   1.995       .  S
O356        C365   1.295       .  A
O357       Ni361   1.982       .  S
O357        C364   1.296       .  A
O358       Ni361   1.897       .  S
O358        C363   1.274       .  A
O359       Ni361   1.866       .  S
O359        C362   1.271       .  A
Ni360      Ni361   2.377       .  S
C362        C370   1.484       .  S
C363        C420   1.514       .  S
C365        C402   1.517   1_565  S
C366        C367   1.427       .  A
C366        C371   1.419       .  A
C367        C368   1.418       .  A
C367        H372   1.081       .  S
C368        C369   1.400       .  A
C369        C370   1.400       .  A
C369        H373   1.087       .  S
C370        C371   1.400       .  A
C371        H374   1.084       .  S
O375       Ni383   1.991       .  S
O375        C385   1.296       .  A
O376       Ni383   1.988       .  S
O376        C386   1.295       .  A
O377       Ni383   1.861       .  S
O377        C387   1.269       .  A
O378       Ni383   1.872       .  S
O378        C388   1.273       .  A
O379       Ni384   1.948       .  S
O379        C388   1.286       .  A
O380       Ni384   1.945       .  S
O380        C387   1.287       .  A
O381       Ni384   1.887       .  S
O381        C386   1.276       .  A
O382       Ni384   1.885       .  S
O382        C385   1.275       .  A
Ni383      Ni384   2.382       .  S
C385        C391   1.508       .  S
C386        C407   1.515       .  S
C387        C400   1.461   1_655  S
C389        C390   1.424       .  A
C389        C394   1.421       .  A
C390        C391   1.409       .  A
C390        H395   1.083       .  S
C391        C392   1.404       .  A
C392        C393   1.413       .  A
C392        H396   1.085       .  S
C393        C394   1.401       .  A
C394        H397   1.081       .  S
C398        C439   1.500       .  S
C398        C399   1.402       .  A
C398        C403   1.441       .  A
C399        C400   1.383       .  A
C399        H404   1.085   1_455  S
C400        C401   1.395       .  A
C401        C402   1.404       .  A
C401        H405   1.086       .  S
C402        C403   1.432       .  A
C403        H406   1.081       .  S
C407        C408   1.412       .  A
C407        C412   1.417       .  A
C408        C409   1.405       .  A
C408        H413   1.083       .  S
C409        C410   1.399       .  A
C410        C411   1.417       .  A
C410        H414   1.084       .  S
C411        C412   1.425       .  A
C412        H415   1.083       .  S
C416        C417   1.413       .  A
C416        C421   1.418       .  A
C417        C418   1.396       .  A
C417        H422   1.079       .  S
C418        C419   1.420       .  A
C419        C420   1.420       .  A
C419        H423   1.083       .  S
C420        C421   1.407       .  A
C421        H424   1.083       .  S
C425        C426   1.406       .  A
C425        C430   1.424   1_556  A
C426        C427   1.399       .  A
C426        H431   1.085       .  S
C427        C428   1.397   1_556  A
C428        C429   1.414       .  A
C428        H432   1.084       .  S
C429        C430   1.443       .  A
C430        H433   1.081       .  S
C434        C435   1.545       .  S
C434        C440   1.480       .  S
C434        C438   1.532       .  S
C434        C571   1.501       .  S
C435        H442   1.083       .  S
C435        C436   1.377       .  D
C436        C437   1.552       .  S
C437        C441   1.585       .  S
C437        C439   1.532       .  S
C437        H443   1.110       .  S
C438        H444   1.080       .  S
C438        C439   1.359       .  D
C440        H445   1.083       .  S
C440        C441   1.351       .  D
C446        C447   1.535       .  S
C446        C452   1.539       .  S
C446        C450   1.501       .  S
C446        C550   1.549       .  S
C447        H454   1.082       .  S
C447        C448   1.378       .  D
C448        C449   1.587       .  S
C449        C453   1.546       .  S
C449        C451   1.546       .  S
C449        H455   1.110       .  S
C450        H456   1.080       .  S
C450        C451   1.343       .  D
C452        H457   1.077       .  S
C452        C453   1.359       .  D
C458        C459   1.505       .  S
C458        C464   1.544       .  S
C458        C462   1.542       .  S
C458        C515   1.544       .  S
C459        H466   1.092       .  S
C459        C460   1.340       .  D
C460        C461   1.551       .  S
C461        C465   1.561       .  S
C461        C463   1.568       .  S
C461        H467   1.110       .  S
C462        H468   1.086       .  S
C462        C463   1.371       .  D
C464        H469   1.085       .  S
C464        C465   1.370       .  D
C470        C471   1.558       .  S
C470        C476   1.536       .  S
C470        C474   1.481       .  S
C470        C494   1.533       .  S
C471        H478   1.086       .  S
C471        C472   1.382       .  D
C472        C473   1.541       .  S
C473        C477   1.549       .  S
C473        C475   1.567       .  S
C473        H479   1.110       .  S
C474        H480   1.091       .  S
C474        C475   1.342       .  D
C476        H481   1.086       .  S
C476        C477   1.368       .  D
C482        C487   1.610       .  S
C482        C522   1.599       .  S
C482        C543   1.579       .  S
C482        C578   1.593       .  S
C483        C484   1.397       .  A
C483        C488   1.389       .  A
C483        C501   1.452       .  S
C484        C485   1.406       .  A
C484        C489   1.511       .  S
C485        C486   1.428       .  A
C485        C490   1.452       .  S
C486        C487   1.444       .  A
C486        C502   1.432       .  S
C487        C488   1.440       .  A
C488        C491   1.450       .  S
C489        C492   1.404       .  A
C489        C496   1.408       .  A
C490        N507   1.157       .  T
C491        N509   1.157       .  T
C492        C493   1.419       .  A
C492        C497   1.444       .  S
C493        C494   1.434       .  A
C493        C499   1.448       .  S
C494        C495   1.424       .  A
C495        C496   1.412       .  A
C495        C498   1.451       .  S
C496        C500   1.445       .  S
C497        N504   1.157       .  T
C498        N505   1.158       .  T
C499        N503   1.157       .  T
C500        N506   1.157       .  T
C501        N510   1.157       .  T
C502        N508   1.153       .  T
C511        C512   1.419       .  A
C511        C516   1.415       .  A
C511        C529   1.450       .  S
C512        C513   1.413       .  A
C512        C517   1.518       .  S
C513        C514   1.409       .  A
C513        C518   1.450       .  S
C514        C515   1.431       .  A
C514        C530   1.455       .  S
C515        C516   1.427       .  A
C516        C519   1.453       .  S
C517        C520   1.408       .  A
C517        C524   1.409       .  A
C518        N535   1.158       .  T
C519        N537   1.158       .  T
C520        C521   1.430       .  A
C520        C525   1.454       .  S
C521        C522   1.423       .  A
C521        C527   1.446       .  S
C522        C523   1.410       .  A
C523        C524   1.430       .  A
C523        C526   1.440       .  S
C524        C528   1.445       .  S
C525        N532   1.158       .  T
C526        N533   1.156       .  T
C527        N531   1.158       .  T
C528        N534   1.157       .  T
C529        N538   1.158       .  T
C530        N536   1.158       .  T
C539        C540   1.393       .  A
C539        C544   1.414       .  A
C539        C557   1.445       .  S
C540        C541   1.394       .  A
C540        C545   1.519       .  S
C541        C542   1.409       .  A
C541        C546   1.445       .  S
C542        C543   1.449       .  A
C542        C558   1.434       .  S
C543        C544   1.444       .  A
C544        C547   1.435       .  S
C545        C548   1.403       .  A
C545        C552   1.406       .  A
C546        N563   1.156       .  T
C547        N565   1.153       .  T
C548        C549   1.402       .  A
C548        C553   1.449       .  S
C549        C550   1.433       .  A
C549        C555   1.449       .  S
C550        C551   1.447       .  A
C551        C552   1.413       .  A
C551        C554   1.454       .  S
C552        C556   1.454       .  S
C553        N560   1.157       .  T
C554        N561   1.158       .  T
C555        N559   1.158       .  T
C556        N562   1.158       .  T
C557        N566   1.156       .  T
C558        N564   1.153       .  T
C567        C568   1.397       .  A
C567        C572   1.396       .  A
C567        C585   1.442       .  S
C568        C569   1.406       .  A
C568        C573   1.467       .  S
C569        C570   1.420       .  A
C569        C574   1.445       .  S
C570        C571   1.440       .  A
C570        C586   1.440       .  S
C571        C572   1.362       .  A
C572        C575   1.439       .  S
C573        C576   1.390       .  A
C573        C580   1.386       .  A
C574        N591   1.155       .  T
C575        N593   1.157       .  T
C576        C577   1.415       .  A
C576        C581   1.449       .  S
C577        C578   1.459       .  A
C577        C583   1.448       .  S
C578        C579   1.448       .  A
C579        C580   1.403       .  A
C579        C582   1.444       .  S
C580        C584   1.450       .  S
C581        N588   1.157       .  T
C582        N589   1.153       .  T
C583        N587   1.157       .  T
C584        N590   1.157       .  T
C585        N594   1.158       .  T
C586        N592   1.156       .  T
C595        C596   1.399       .  A
C595        C600   1.409       .  A
C595        C613   1.458       .  S
C596        C597   1.423       .  A
C596        C601   1.525       .  S
C597        C598   1.410       .  A
C597        C602   1.455       .  S
C598        C599   1.424       .  A
C598        C614   1.437       .  S
C599        C600   1.448       .  A
C600        C603   1.438       .  S
C601        C604   1.393       .  A
C601        C608   1.412       .  A
C602        N619   1.158       .  T
C603        N621   1.153       .  T
C604        C605   1.410       .  A
C604        C609   1.444       .  S
C605        C606   1.444       .  A
C605        C611   1.446       .  S
C606        C607   1.420       .  A
C607        C608   1.417       .  A
C607        C610   1.445       .  S
C608        C612   1.444       .  S
C609        N616   1.157       .  T
C610        N617   1.157       .  T
C611        N615   1.156       .  T
C612        N618   1.157       .  T
C613        N622   1.157       .  T
C614        N620   1.155   1_655  T
C623        C624   1.404   1_455  A
C623        C628   1.424       .  A
C623        C641   1.449   1_556  S
C624        C625   1.407   1_655  A
C624        C629   1.537       .  S
C625        C626   1.418       .  A
C625        C630   1.442       .  S
C626        C627   1.421       .  A
C626        C642   1.438       .  S
C627        C628   1.420       .  A
C628        C631   1.441       .  S
C629        C632   1.419       .  A
C629        C636   1.428   1_556  A
C630        N647   1.156       .  T
C631        N649   1.154       .  T
C632        C633   1.418       .  A
C632        C637   1.451       .  S
C633        C634   1.433       .  A
C633        C639   1.454       .  S
C634        C635   1.430   1_556  A
C635        C636   1.420       .  A
C635        C638   1.455       .  S
C636        C640   1.451       .  S
C637        N644   1.158       .  T
C638        N645   1.158       .  T
C639        N643   1.158       .  T
C640        N646   1.158       .  T
C641        N650   1.157       .  T
C642        N648   1.154       .  T
C651        C652   1.410   1_545  A
C651        C656   1.407       .  A
C651        C669   1.447       .  S
C652        C653   1.431       .  A
C652        C657   1.482   1_565  S
C653        C654   1.394       .  A
C653        C658   1.435       .  S
C654        C655   1.388       .  A
C654        C670   1.448       .  S
C655        C656   1.417   1_565  A
C656        C659   1.446       .  S
C657        C660   1.384   1_545  A
C657        C664   1.375       .  A
C658        N675   1.154       .  T
C659        N677   1.157       .  T
C660        C661   1.418       .  A
C660        C665   1.456       .  S
C661        C662   1.456       .  A
C661        C667   1.431       .  S
C662        C663   1.458       .  A
C663        C664   1.394   1_565  A
C663        C666   1.453       .  S
C664        C668   1.438       .  S
C665        N672   1.157   1_556  T
C666        N673   1.159       .  T
C667        N671   1.156       .  T
C668        N674   1.153       .  T
C669        N678   1.157       .  T
C670        N676   1.158       .  T
C679        C680   1.440   1_565  A
C679        C684   1.416       .  A
C679        C697   1.448       .  S
C680        C681   1.399       .  A
C680        C685   1.502       .  S
C681        C682   1.403   1_545  A
C681        C686   1.445       .  S
C682        C683   1.428       .  A
C682        C698   1.448       .  S
C683        C684   1.408       .  A
C684        C687   1.448       .  S
C685        C688   1.362       .  A
C685        C692   1.411       .  A
C686        N703   1.156   1_455  T
C687        N705   1.157       .  T
C688        C689   1.393       .  A
C688        C693   1.437       .  S
C689        C690   1.447       .  A
C689        C695   1.443       .  S
C690        C691   1.432   1_455  A
C691        C692   1.429   1_655  A
C691        C694   1.445       .  S
C692        C696   1.445   1_455  S
C693        N700   1.154       .  T
C694        N701   1.157       .  T
C695        N699   1.156       .  T
C696        N702   1.157       .  T
C697        N706   1.157       .  T
C698        N704   1.158       .  T
