geometry optimzed in LAMMPS
_audit_creation_date              2020-12-01 
_audit_creation_method            'lammps2cif' 
_symmetry_space_group_name_H-M    'P1' 
_symmetry_Int_Tables_number       1 
_symmetry_cell_setting            triclinic 
loop_ 
_symmetry_equiv_pos_as_xyz 
  x,y,z 
_cell_length_a                    39.61785957 
_cell_length_b                    39.76961802687287 
_cell_length_c                    39.69965273310206 
_cell_angle_alpha                 89.99470946874672 
_cell_angle_beta                  89.95409876117205 
_cell_angle_gamma                 90.08006231849443 
loop_ 
_atom_site_label 
_atom_site_type_symbol 
_atom_site_fract_x 
_atom_site_fract_y 
_atom_site_fract_z 
_atom_site_charge 
C1          C  0.25689662  0.23422508  0.28261685     0.03300
C2          C  0.23102269  0.25820668  0.28291783    -0.12800
C3          C  0.22966403  0.28306821  0.25795718     0.00800
C4          C  0.25442037  0.28388181  0.23263565    -0.11300
C5          C  0.28077505  0.26026985  0.23255594     0.03300
C6          C  0.28173731  0.23546523  0.25761927    -0.10700
H7          H  0.21189734  0.25742817  0.30245064     0.08900
H8          H  0.25352375  0.30325027  0.21345202     0.06500
H9          H  0.30134217  0.21647819  0.25720147     0.06300
O10         O  0.96701704  0.46955079  0.28303895    -0.74200
O11         O  0.03235720  0.54049783  0.28443247    -0.74200
O12         O  0.96399223  0.53760813  0.28099642    -0.74300
O13         O  0.03519535  0.47238298  0.28602486    -0.74300
O14         O  0.03754035  0.47101287  0.22998975    -0.74300
O15         O  0.96728588  0.53669865  0.22501398    -0.74300
O16         O  0.03552505  0.53884147  0.22844713    -0.74200
O17         O  0.96918081  0.46877931  0.22694422    -0.74300
Ni18       Ni  0.99954560  0.50508839  0.28562956     1.25400
Ni19       Ni  0.00247675  0.50378255  0.22562683     1.25400
C20         C  0.95712533  0.45761423  0.25475757     0.88000
C21         C  0.04495458  0.55123616  0.25672051     0.87900
C22         C  0.95381581  0.54789635  0.25211353     0.87900
C23         C  0.04803798  0.46080577  0.25873463     0.88100
C24         C  0.77531314  0.72792869  0.24164451     0.03300
C25         C  0.77438268  0.75270082  0.26684888    -0.12800
C26         C  0.74838964  0.77676221  0.26754862     0.00800
C27         C  0.72306394  0.77558954  0.24273761    -0.11300
C28         C  0.72382209  0.75098491  0.21733363     0.03300
C29         C  0.75011574  0.72746740  0.21688447    -0.10700
H30         H  0.79363135  0.75296129  0.28622195     0.08900
H31         H  0.70257129  0.79357343  0.24335475     0.06500
H32         H  0.75064884  0.70830761  0.19746889     0.06300
O33         O  0.22950092  0.04024542  0.46755582    -0.74200
O34         O  0.22765757  0.97030643  0.53387861    -0.74200
O35         O  0.22895440  0.03846049  0.53535421    -0.74300
O36         O  0.22773871  0.97239637  0.46565280    -0.74300
O37         O  0.28389208  0.97068333  0.46603151    -0.74300
O38         O  0.28520945  0.03754738  0.53555591    -0.74300
O39         O  0.28391451  0.96966838  0.53442650    -0.74200
O40         O  0.28574213  0.03845910  0.46745065    -0.74300
Ni41       Ni  0.22645570  0.00533251  0.50063362     1.25400
Ni42       Ni  0.28669167  0.00399837  0.50088222     1.25400
C43         C  0.25802544  0.05079598  0.45653704     0.88000
C44         C  0.25556656  0.95874255  0.54538077     0.87900
C45         C  0.25720385  0.04916198  0.54676835     0.87900
C46         C  0.25553551  0.96082470  0.45399327     0.88100
O47         O  0.77433253  0.96096772  0.46518076    -0.74200
O48         O  0.77549748  0.02821199  0.53447927    -0.74200
O49         O  0.77220025  0.96023154  0.53341711    -0.74300
O50         O  0.77771236  0.02915159  0.46623599    -0.74300
O51         O  0.72160409  0.03158453  0.46449535    -0.74300
O52         O  0.71610102  0.96276975  0.53188285    -0.74300
O53         O  0.71937437  0.03056935  0.53273738    -0.74200
O54         O  0.71823363  0.96361443  0.46356716    -0.74300
Ni55       Ni  0.77693852  0.99453954  0.49986483     1.25400
Ni56       Ni  0.71685478  0.99723283  0.49808495     1.25400
C57         C  0.74605632  0.95120454  0.45284376     0.88000
C58         C  0.74751729  0.04028068  0.54528283     0.87900
C59         C  0.74329090  0.95023877  0.54397840     0.87900
C60         C  0.75054435  0.04184512  0.45426173     0.88100
C61         C  0.27102668  0.74750221  0.76983460     0.03300
C62         C  0.24452431  0.72404075  0.76874697    -0.12800
C63         C  0.21925864  0.72611800  0.74398776     0.00800
C64         C  0.22038190  0.75259488  0.72053986    -0.11300
C65         C  0.24674235  0.77624251  0.72139996     0.03300
C66         C  0.27189922  0.77353651  0.74600854    -0.10700
H67         H  0.24350073  0.70415393  0.78736629     0.08900
H68         H  0.20121235  0.75441572  0.70117018     0.06500
H69         H  0.29165588  0.79237557  0.74710352     0.06300
O70         O  0.03691340  0.46451979  0.72000088    -0.74200
O71         O  0.96286171  0.52668523  0.71482418    -0.74200
O72         O  0.03096625  0.53259246  0.71779742    -0.74300
O73         O  0.96856106  0.45854760  0.71685908    -0.74300
O74         O  0.96575650  0.46042164  0.77283984    -0.74300
O75         O  0.02872356  0.53364371  0.77381973    -0.74300
O76         O  0.96068035  0.52805983  0.77086196    -0.74200
O77         O  0.03393204  0.46578110  0.77594633    -0.74300
Ni78       Ni  0.99994798  0.49549627  0.71534942     1.25400
Ni79       Ni  0.99721091  0.49701003  0.77530717     1.25400
C80         C  0.04762860  0.45477225  0.74889521     0.88000
C81         C  0.94955398  0.53765827  0.74215781     0.87900
C82         C  0.04015585  0.54538947  0.74599398     0.87900
C83         C  0.95649038  0.44750978  0.74473559     0.88100
C84         C  0.77727871  0.26632334  0.75180037     0.03300
C85         C  0.75145955  0.26833831  0.77602094    -0.12800
C86         C  0.72455246  0.24527850  0.77594787     0.00800
C87         C  0.72352003  0.22005357  0.75121779    -0.11300
C88         C  0.74953348  0.21735979  0.72738082     0.03300
C89         C  0.77630621  0.24045588  0.72778674    -0.10700
H90         H  0.75219318  0.28803065  0.79488144     0.08900
H91         H  0.70304013  0.20195462  0.75107062     0.06500
H92         H  0.79579949  0.23885823  0.70868606     0.06300
O93         O  0.46057789  0.77600588  0.96243842    -0.74200
O94         O  0.52989356  0.77519166  0.02977904    -0.74200
O95         O  0.52893011  0.77432695  0.96175353    -0.74300
O96         O  0.46135841  0.77734065  0.03039553    -0.74300
O97         O  0.45900008  0.72139574  0.03100923    -0.74300
O98         O  0.52802479  0.71832128  0.96347874    -0.74300
O99         O  0.52755111  0.71927016  0.03146139    -0.74200
O100        O  0.45950228  0.72005666  0.96313345    -0.74300
Ni101      Ni  0.49525158  0.77770673  0.99609818     1.25400
Ni102      Ni  0.49346608  0.71777059  0.99731551     1.25400
C103        C  0.44848534  0.74809176  0.95168687     0.88000
C104        C  0.54045709  0.74706152  0.04149916     0.87900
C105        C  0.53994554  0.74584364  0.95155664     0.87900
C106        C  0.44849575  0.74996775  0.04158626     0.88100
O107        O  0.53666062  0.27647903  0.97042366    -0.74200
O108        O  0.46877791  0.27710027  0.03887545    -0.74200
O109        O  0.53680851  0.27707140  0.03868997    -0.74300
O110        O  0.46838834  0.27625969  0.97089545    -0.74300
O111        O  0.46871451  0.22026898  0.97081642    -0.74300
O112        O  0.53619511  0.22110157  0.03977399    -0.74300
O113        O  0.46775280  0.22106540  0.03896854    -0.74200
O114        O  0.53723415  0.22048391  0.97153185    -0.74300
Ni115      Ni  0.50267469  0.27868858  0.00467229     1.25400
Ni116      Ni  0.50249539  0.21870685  0.00527926     1.25400
C117        C  0.54833214  0.24841582  0.95973369     0.88000
C118        C  0.45696803  0.24931191  0.05016488     0.87900
C119        C  0.54765419  0.24921754  0.05068329     0.87900
C120        C  0.45706164  0.24820653  0.95976609     0.88100
C121        C  0.74032451  0.76561466  0.71852604     0.03300
C122        C  0.76586502  0.74108982  0.71797299    -0.12800
C123        C  0.76706140  0.71555392  0.74246502     0.00800
C124        C  0.74208074  0.71479112  0.76768609    -0.11300
C125        C  0.71621879  0.73890179  0.76838681     0.03300
C126        C  0.71563088  0.76423995  0.74383336    -0.10700
H127        H  0.78488075  0.74192764  0.69841861     0.08900
H128        H  0.74275215  0.69545928  0.78690501     0.06500
H129        H  0.69595925  0.78312640  0.74458846     0.06300
C130        C  0.78221131  0.27235273  0.25076250     0.03300
C131        C  0.75723453  0.27216538  0.22556880    -0.12800
C132        C  0.73198293  0.24733864  0.22526415     0.00800
C133        C  0.73247438  0.22191020  0.24974601    -0.11300
C134        C  0.75722602  0.22159879  0.27496221     0.03300
C135        C  0.78164475  0.24719197  0.27563895    -0.10700
H136        H  0.75713988  0.29159805  0.20643493     0.08900
H137        H  0.71322276  0.20253180  0.24943431     0.06500
H138        H  0.80017805  0.24750586  0.29567787     0.06300
C139        C  0.25204630  0.22586571  0.72882758     0.03300
C140        C  0.27695684  0.22527864  0.75393492    -0.12800
C141        C  0.27830690  0.25042008  0.77876570     0.00800
C142        C  0.25368617  0.27586399  0.77867511    -0.11300
C143        C  0.22782353  0.27602153  0.75454043     0.03300
C144        C  0.22727684  0.25103891  0.72961103    -0.10700
H145        H  0.29537115  0.20519058  0.75399620     0.08900
H146        H  0.25444016  0.29551170  0.79756207     0.06500
H147        H  0.20761362  0.25131331  0.71066537     0.06300
C148        C  0.26957198  0.75986562  0.22161186     0.03300
C149        C  0.24617790  0.73342448  0.22431722    -0.12800
C150        C  0.22280534  0.73255893  0.25091642     0.00800
C151        C  0.22305508  0.75841130  0.27493061    -0.11300
C152        C  0.24595746  0.78510971  0.27223522     0.03300
C153        C  0.26881334  0.78601724  0.24534022    -0.10700
H154        H  0.24616659  0.71352528  0.20568518     0.08900
H155        H  0.20539305  0.75780770  0.29579257     0.06500
H156        H  0.28631069  0.80688154  0.24321668     0.06300
C157        C  0.36276057  0.24031504  0.82353976    -0.27400
C158        C  0.35379640  0.24755716  0.85691178     0.02200
C159        C  0.32022486  0.25626242  0.86444283     0.30300
C160        C  0.29602610  0.25704031  0.83886169    -0.19200
C161        C  0.30479543  0.24970207  0.80532134    -0.28600
C162        C  0.33874378  0.24176039  0.79777107     0.44300
C163        C  0.37988564  0.24718512  0.88350831     0.05500
O164        O  0.31078706  0.26397558  0.89678229    -0.57100
H165        H  0.27018131  0.26301245  0.84543227     0.18500
O166        O  0.34900301  0.23619215  0.76524676    -0.63800
H167        H  0.38870736  0.23436428  0.81731062     0.16900
C168        C  0.39874459  0.21802688  0.89034578     0.29200
C169        C  0.42352943  0.21853754  0.91547555    -0.24700
C170        C  0.43018532  0.24806613  0.93382795    -0.24000
C171        C  0.41082372  0.27710745  0.92711789     0.40600
C172        C  0.38610812  0.27649728  0.90205741    -0.26500
O173        O  0.39232441  0.18866535  0.87335821    -0.58300
H174        H  0.43775009  0.19580565  0.92034824     0.16200
O175        O  0.41564107  0.30627058  0.94492063    -0.59800
H176        H  0.37179084  0.29912825  0.89695356     0.14700
H177        H  0.35441796  0.25876661  0.75609286     0.46600
H178        H  0.41066814  0.18670394  0.85646238     0.41900
H179        H  0.40062339  0.30431541  0.96483085     0.45400
H180        H  0.30574963  0.24205592  0.90759017     0.36900
C181        C  0.60864030  0.27832245  0.11882264    -0.27400
C182        C  0.62581500  0.24842218  0.12584985     0.02200
C183        C  0.61673135  0.21871632  0.10905068     0.30300
C184        C  0.59094859  0.21924197  0.08502641    -0.19200
C185        C  0.57403220  0.24933571  0.07717686    -0.28600
C186        C  0.58296506  0.27903678  0.09463739     0.44300
C187        C  0.65308284  0.24842966  0.15100715     0.05500
O188        O  0.63253293  0.18894825  0.11640487    -0.57100
H189        H  0.58449484  0.19603923  0.07225831     0.18500
O190        O  0.56623536  0.30868601  0.08902085    -0.63800
H191        H  0.61528848  0.30121792  0.13206506     0.16900
C192        C  0.68703795  0.25115368  0.14105832     0.29200
C193        C  0.71260952  0.25102511  0.16539628    -0.24700
C194        C  0.70464611  0.24817741  0.19978506    -0.24000
C195        C  0.67045119  0.24599164  0.20958470     0.40600
C196        C  0.64499091  0.24602586  0.18522393    -0.26500
O197        O  0.69542061  0.25351476  0.10761166    -0.58300
H198        H  0.73871137  0.25269610  0.15739863     0.16200
O199        O  0.66162322  0.24417974  0.24294690    -0.59800
H200        H  0.61883254  0.24422213  0.19302971     0.14700
H201        H  0.58086763  0.32155983  0.07336077     0.46600
H202        H  0.69385563  0.27780223  0.10217174     0.41900
H203        H  0.65951255  0.26786863  0.25044502     0.45400
H204        H  0.65228227  0.18803518  0.10107438     0.36900
C205        C  0.63199607  0.74286676  0.81402296    -0.27400
C206        C  0.64228306  0.74174656  0.84780243     0.02200
C207        C  0.67683855  0.73844698  0.85535314     0.30300
C208        C  0.70058492  0.73672669  0.82929061    -0.19200
C209        C  0.69040042  0.73850668  0.79546098    -0.28600
C210        C  0.65569567  0.74110338  0.78795211     0.44300
C211        C  0.61668623  0.74347827  0.87492100     0.05500
O212        O  0.68768785  0.73747697  0.88813818    -0.57100
H213        H  0.72713259  0.73488782  0.83554785     0.18500
O214        O  0.64463632  0.74170499  0.75522466    -0.63800
H215        H  0.60542791  0.74475904  0.80785796     0.16900
C216        C  0.59467096  0.77110415  0.87754528     0.29200
C217        C  0.57012406  0.77179982  0.90292425    -0.24700
C218        C  0.56673143  0.74488273  0.92561793    -0.24000
C219        C  0.58924005  0.71752751  0.92329107     0.40600
C220        C  0.61389314  0.71697201  0.89805761    -0.26500
O221        O  0.59767045  0.79795480  0.85603597    -0.58300
H222        H  0.55337103  0.79325694  0.90449714     0.16200
O223        O  0.58762984  0.69132170  0.94569981    -0.59800
H224        H  0.63073146  0.69559288  0.89633633     0.14700
H225        H  0.64357300  0.71779128  0.74821757     0.46600
H226        H  0.57879828  0.79554479  0.83981213     0.41900
H227        H  0.60124881  0.69865282  0.96533016     0.45400
H228        H  0.69075522  0.76133623  0.89473408     0.36900
C229        C  0.37411089  0.72654317  0.09756993    -0.27400
C230        C  0.36899774  0.75665414  0.11517687     0.02200
C231        C  0.38961459  0.78458823  0.10814743     0.30300
C232        C  0.41536825  0.78199750  0.08423253    -0.19200
C233        C  0.42100106  0.75170945  0.06683805    -0.28600
C234        C  0.39972724  0.72393339  0.07344237     0.44300
C235        C  0.34313107  0.75824320  0.14192614     0.05500
O236        O  0.38486324  0.81450839  0.12466049    -0.57100
H237        H  0.43111693  0.80378386  0.07949762     0.18500
O238        O  0.40364731  0.69410250  0.05656430    -0.63800
H239        H  0.35847427  0.70480880  0.10290628     0.16900
C240        C  0.30892057  0.75180168  0.13496321     0.29200
C241        C  0.28510666  0.75287064  0.16100553    -0.25900
C242        C  0.29504493  0.75983654  0.19425772    -0.24000
C243        C  0.32944775  0.76592682  0.20114338     0.40600
C244        C  0.35307885  0.76541353  0.17502416    -0.26500
O245        O  0.29844867  0.74553522  0.10263487    -0.58300
H246        H  0.25877221  0.74838755  0.15516773     0.16200
O247        O  0.34041520  0.77155892  0.23341947    -0.59800
H248        H  0.37945156  0.76987953  0.18073989     0.14700
H249        H  0.38901759  0.69600939  0.03640129     0.46600
H250        H  0.29500350  0.72085552  0.10149359     0.41900
H251        H  0.34501021  0.74892302  0.24282773     0.45400
H252        H  0.36768610  0.82668864  0.11122817     0.36900
C253        C  0.63951824  0.24980126  0.82035515    -0.27400
C254        C  0.64944247  0.24930352  0.85428920     0.02200
C255        C  0.68400228  0.24794560  0.86226061     0.30300
C256        C  0.70811725  0.24688196  0.83651816    -0.19200
C257        C  0.69829920  0.24694329  0.80254272    -0.28600
C258        C  0.66366075  0.24854422  0.79453936     0.44300
C259        C  0.62364638  0.24938970  0.88129811     0.05500
O260        O  0.69441993  0.24751994  0.89519263    -0.57100
H261        H  0.73461837  0.24557150  0.84311173     0.18500
O262        O  0.65316856  0.24901986  0.76162830    -0.63800
H263        H  0.61296658  0.25075917  0.81390650     0.16900
C264        C  0.60222525  0.27714024  0.88609563     0.29200
C265        C  0.57818901  0.27668605  0.91200335    -0.24700
C266        C  0.57468956  0.24848722  0.93314683    -0.24000
C267        C  0.59649389  0.22083229  0.92841756     0.40600
C268        C  0.62066797  0.22146715  0.90267025    -0.26500
O269        O  0.60535754  0.30522521  0.86627280    -0.58300
H270        H  0.56196019  0.29835073  0.91525102     0.16200
O271        O  0.59469726  0.19315925  0.94896133    -0.59800
H272        H  0.63715017  0.20000675  0.89928628     0.14700
H273        H  0.65368495  0.27304396  0.75495235     0.46600
H274        H  0.58774213  0.30283196  0.84870214     0.41900
H275        H  0.60993399  0.19823951  0.96810678     0.45400
H276        H  0.69766286  0.27147626  0.90133706     0.36900
C277        C  0.14294775  0.32040892  0.75307951    -0.27400
C278        C  0.15294023  0.35419655  0.75426528     0.02200
C279        C  0.18740694  0.36228349  0.75619134     0.30300
C280        C  0.21155196  0.33663001  0.75672207    -0.19200
C281        C  0.20172788  0.30270781  0.75498795    -0.28600
C282        C  0.16704396  0.29470017  0.75351998     0.44300
C283        C  0.12715693  0.38087250  0.75303824     0.05500
O284        O  0.19765601  0.39518979  0.75781891    -0.57100
H285        H  0.23805964  0.34326280  0.75788486     0.18500
O286        O  0.15642582  0.26186233  0.75279111    -0.63800
H287        H  0.11638587  0.31400771  0.75174741     0.16900
C288        C  0.11779148  0.39542609  0.72222223     0.29200
C289        C  0.09233710  0.41980384  0.72128081    -0.24700
C290        C  0.07585853  0.43015466  0.75095642    -0.24000
C291        C  0.08628649  0.41611052  0.78204511     0.40600
C292        C  0.11147146  0.39143576  0.78277801    -0.26500
O293        O  0.13345127  0.38597211  0.69289748    -0.58300
H294        H  0.08533099  0.43038267  0.69714185     0.16200
O295        O  0.07161500  0.42562416  0.81184704    -0.59800
H296        H  0.11874668  0.38042080  0.80665976     0.14700
H297        H  0.15553185  0.25473747  0.77671565     0.46600
H298        H  0.11978546  0.36701953  0.68406642     0.41900
H299        H  0.08613128  0.44397211  0.82063167     0.45400
H300        H  0.20073684  0.40225812  0.73405874     0.36900
C301        C  0.87439210  0.59124818  0.76770995    -0.27400
C302        C  0.87015552  0.61175381  0.73929079     0.02200
C303        C  0.89140568  0.60693947  0.71120559     0.30300
C304        C  0.91669773  0.58230357  0.71208381    -0.19200
C305        C  0.92132331  0.56213987  0.74081259    -0.28600
C306        C  0.89938636  0.56647179  0.76853492     0.44300
C307        C  0.84365265  0.63816853  0.73947934     0.05500
O308        O  0.88776228  0.62626465  0.68282841    -0.57100
H309        H  0.93310808  0.57941155  0.69043773     0.18500
O310        O  0.90208495  0.54667504  0.79669489    -0.63800
H311        H  0.85843049  0.59468357  0.78960424     0.16900
C312        C  0.80979055  0.63013607  0.74673498     0.29200
C313        C  0.78524124  0.65544505  0.74728523    -0.24700
C314        C  0.79387761  0.68925466  0.74142969    -0.24000
C315        C  0.82801354  0.69730939  0.73476791     0.40600
C316        C  0.85241110  0.67185036  0.73347471    -0.26500
O317        O  0.80025422  0.59739028  0.75211579    -0.58300
H318        H  0.75922874  0.64846552  0.75202442     0.16200
O319        O  0.83807173  0.73001489  0.73025649    -0.59800
H320        H  0.87847270  0.67854868  0.72855180     0.14700
H321        H  0.88806636  0.52656010  0.79187997     0.46600
H322        H  0.79608575  0.59564033  0.77669582     0.41900
H323        H  0.84097153  0.73920792  0.75329284     0.45400
H324        H  0.86983024  0.61503637  0.66950962     0.36900
C325        C  0.90132239  0.37323004  0.71816369    -0.27400
C326        C  0.88048133  0.36954564  0.74652218     0.02200
C327        C  0.88512171  0.39103460  0.77425494     0.30300
C328        C  0.91029136  0.41578107  0.77340310    -0.19200
C329        C  0.93086944  0.42011091  0.74483460    -0.28600
C330        C  0.92609424  0.39849996  0.71696939     0.44300
C331        C  0.85403950  0.34312894  0.74718153     0.05500
O332        O  0.86593631  0.38715332  0.80279780    -0.57100
H333        H  0.91335678  0.43193549  0.79516053     0.18500
O334        O  0.94605974  0.40114923  0.68885658    -0.63800
H335        H  0.89810032  0.35668026  0.69671973     0.16900
C336        C  0.81966273  0.35173798  0.74931455     0.29200
C337        C  0.79506790  0.32645705  0.75090937    -0.24700
C338        C  0.80416742  0.29234980  0.75053054    -0.24000
C339        C  0.83864523  0.28374236  0.74826301     0.40600
C340        C  0.86324563  0.30906934  0.74636741    -0.26500
O341        O  0.80988200  0.38481823  0.74841116    -0.58300
H342        H  0.76869284  0.33356207  0.75196586     0.16200
O343        O  0.84861267  0.25072590  0.74837277    -0.59800
H344        H  0.88964517  0.30213796  0.74486843     0.14700
H345        H  0.93264400  0.41449951  0.67256649     0.46600
H346        H  0.80030863  0.38959857  0.77099525     0.41900
H347        H  0.84992714  0.24437335  0.77249291     0.45400
H348        H  0.85132491  0.40735912  0.80387038     0.36900
C349        C  0.35543010  0.74962937  0.81535392    -0.27400
C350        C  0.34530239  0.74461937  0.84879060     0.02200
C351        C  0.31100656  0.73942019  0.85617024     0.30300
C352        C  0.28711851  0.74015616  0.83023813    -0.19200
C353        C  0.29705510  0.74555193  0.79665127    -0.28600
C354        C  0.33169309  0.74971400  0.78929904     0.44300
C355        C  0.37079995  0.74550720  0.87580454     0.05500
O356        O  0.30050405  0.73508349  0.88881353    -0.57100
H357        H  0.26066531  0.73721544  0.83652771     0.18500
O358        O  0.34267614  0.75369447  0.75676597    -0.63800
H359        H  0.38189536  0.75329771  0.80946186     0.16900
C360        C  0.38056256  0.71598387  0.89253074     0.29200
C361        C  0.40564410  0.71727036  0.91727597    -0.24700
C362        C  0.42139687  0.74788393  0.92581014    -0.24000
C363        C  0.41096636  0.77758624  0.90925127     0.40600
C364        C  0.38611943  0.77610709  0.88424806    -0.26500
O365        O  0.36595934  0.68570959  0.88461589    -0.58300
H366        H  0.41284160  0.69410581  0.92967765     0.16200
O367        O  0.42534112  0.80809816  0.91660957    -0.59800
H368        H  0.37870276  0.79897373  0.87139576     0.14700
H369        H  0.34558357  0.73054619  0.74795716     0.46600
H370        H  0.37973480  0.67657179  0.86587321     0.41900
H371        H  0.41022570  0.81842552  0.93361949     0.45400
H372        H  0.29768470  0.71045928  0.89158500     0.36900
C373        C  0.17232672  0.64267359  0.74681440    -0.27400
C374        C  0.13868971  0.65306815  0.74390230     0.02200
C375        C  0.13149353  0.68747573  0.73992015     0.30300
C376        C  0.15788093  0.71106608  0.73969349    -0.19200
C377        C  0.19166953  0.70071557  0.74294825    -0.28600
C378        C  0.19870502  0.66604730  0.74587561     0.44300
C379        C  0.11160897  0.62741555  0.74495309     0.05500
O380        O  0.09872410  0.69832545  0.73765731    -0.57100
H381        H  0.15186704  0.73755075  0.73759874     0.18500
O382        O  0.23132199  0.65464312  0.74742439    -0.63800
H383        H  0.17816436  0.61618238  0.74938604     0.16900
C384        C  0.09275221  0.61953917  0.71601650     0.29200
C385        C  0.06937325  0.59307129  0.71678752    -0.24700
C386        C  0.06428203  0.57407915  0.74629382    -0.24000
C387        C  0.08280771  0.58260540  0.77549484     0.40600
C388        C  0.10643423  0.60883156  0.77450755    -0.26500
O389        O  0.09757729  0.63703750  0.68662743    -0.58300
H390        H  0.05536786  0.58726171  0.69409274     0.16200
O391        O  0.07926664  0.56452679  0.80470865    -0.59800
H392        H  0.12110611  0.61446431  0.79683976     0.14700
H393        H  0.23816593  0.65109493  0.72365697     0.46600
H394        H  0.11708679  0.62605328  0.67550883     0.41900
H395        H  0.06358213  0.57786288  0.81886761     0.45400
H396        H  0.09511004  0.70327932  0.71344626     0.36900
C397        C  0.75376972  0.13610031  0.31762855    -0.27400
C398        C  0.75541040  0.14519577  0.35169475     0.02200
C399        C  0.75796598  0.17934034  0.36051311     0.30300
C400        C  0.75881106  0.20397079  0.33534192    -0.19200
C401        C  0.75701404  0.19499997  0.30115445    -0.28600
C402        C  0.75480577  0.16067475  0.29240550     0.44300
C403        C  0.75417807  0.11887453  0.37791044     0.05500
O404        O  0.75932684  0.18885825  0.39368645    -0.57100
H405        H  0.76030767  0.23020185  0.34256525     0.18500
O406        O  0.75409822  0.15085056  0.25929403    -0.63800
H407        H  0.75201196  0.10982501  0.31061135     0.16900
C408        C  0.72418867  0.10108528  0.38422575     0.29200
C409        C  0.72333309  0.07635000  0.40928151    -0.24700
C410        C  0.75235370  0.06854876  0.42813257    -0.24000
C411        C  0.78246742  0.08658991  0.42166354     0.40600
C412        C  0.78313229  0.11153758  0.39674688    -0.26500
O413        O  0.69531977  0.10842285  0.36666932    -0.58300
H414        H  0.69986208  0.06306541  0.41373664     0.16200
O415        O  0.81137678  0.08026085  0.43953929    -0.59800
H416        H  0.80635993  0.12517477  0.39202181     0.14700
H417        H  0.77811758  0.14896981  0.25250657     0.46600
H418        H  0.69506631  0.09245343  0.34748983     0.41900
H419        H  0.81006919  0.09510679  0.45956976     0.45400
H420        H  0.73544110  0.19081909  0.40091471     0.36900
C421        C  0.71116999  0.89157245  0.61303833    -0.27400
C422        C  0.74057870  0.87365490  0.62082886     0.02200
C423        C  0.77067234  0.88108764  0.60361381     0.30300
C424        C  0.77110430  0.90602295  0.57880804    -0.19200
C425        C  0.74164626  0.92389711  0.57048380    -0.28600
C426        C  0.71139588  0.91630638  0.58787304     0.44300
C427        C  0.73952872  0.84625874  0.64595513     0.05500
O428        O  0.79980594  0.86392858  0.61077669    -0.57100
H429        H  0.79464695  0.91114940  0.56588625     0.18500
O430        O  0.68203550  0.93317283  0.58096460    -0.63800
H431        H  0.68780552  0.88590154  0.62607740     0.16900
C432        C  0.73317054  0.85283654  0.68016491     0.29200
C433        C  0.73361896  0.82645132  0.70353998    -0.24700
C434        C  0.73968409  0.79314462  0.69315864    -0.24000
C435        C  0.74499626  0.78663946  0.65860797     0.40600
C436        C  0.74532773  0.81313064  0.63545798    -0.26500
O437        O  0.72790354  0.88511191  0.69113733    -0.58300
H438        H  0.72969803  0.83214931  0.72993817     0.16200
O439        O  0.74937143  0.75445221  0.64703474    -0.59800
H440        H  0.74977199  0.80777405  0.60906134     0.14700
H441        H  0.66970259  0.91862424  0.56482178     0.46600
H442        H  0.70303263  0.88761196  0.69240807     0.41900
H443        H  0.72623794  0.74549850  0.64371894     0.45400
H444        H  0.81100717  0.87717342  0.62875025     0.36900
C445        C  0.77334496  0.14105171  0.67564751    -0.27400
C446        C  0.74844414  0.14142722  0.65047529     0.02200
C447        C  0.72336773  0.16660471  0.65131708     0.30300
C448        C  0.72346535  0.19072667  0.67699255    -0.19200
C449        C  0.74874194  0.19060162  0.70165871    -0.28600
C450        C  0.77368006  0.16547424  0.70100687     0.44300
C451        C  0.74862032  0.11533526  0.62370212     0.05500
O452        O  0.69901013  0.16822901  0.62683654    -0.57100
H453        H  0.70424832  0.21009129  0.67720491     0.18500
O454        O  0.79842806  0.16457049  0.72512616    -0.63800
H455        H  0.79246285  0.12160286  0.67579169     0.16900
C456        C  0.77798808  0.10841628  0.60485886     0.29200
C457        C  0.77741930  0.08370512  0.57973673    -0.24700
C458        C  0.74768331  0.06575192  0.57258738    -0.24000
C459        C  0.71843087  0.07245600  0.59180277     0.40600
C460        C  0.71910832  0.09700340  0.61700560    -0.26500
O461        O  0.80727747  0.12597931  0.61043960    -0.58300
H462        H  0.80022363  0.07903194  0.56541410     0.16200
O463        O  0.68902912  0.05501057  0.58647277    -0.59800
H464        H  0.69648291  0.10147745  0.63167526     0.14700
H465        H  0.78865092  0.15136326  0.74395531     0.46600
H466        H  0.80523031  0.14665629  0.59663201     0.41900
H467        H  0.69058240  0.03494232  0.60122547     0.45400
H468        H  0.70930936  0.18143999  0.60829025     0.36900
C469        C  0.25431256  0.82888450  0.35628855    -0.27400
C470        C  0.24877165  0.86245764  0.34720517     0.02200
C471        C  0.24194300  0.87065520  0.31343827     0.30300
C472        C  0.24132103  0.84527457  0.28901321    -0.19200
C473        C  0.24665920  0.81161392  0.29815372    -0.28600
C474        C  0.25315127  0.80348075  0.33204369     0.44300
C475        C  0.25054461  0.88862831  0.37335440     0.05500
O476        O  0.23687856  0.90344685  0.30403109    -0.57100
H477        H  0.23639935  0.85178742  0.26297266     0.18500
O478        O  0.25879592  0.77082518  0.34161254    -0.63800
H479        H  0.25953758  0.82241995  0.38228495     0.16900
C480        C  0.22114997  0.90437702  0.38515088     0.29200
C481        C  0.22321086  0.92785087  0.41126614    -0.24700
C482        C  0.25447480  0.93599379  0.42609171    -0.24000
C483        C  0.28399100  0.92025916  0.41379015     0.40600
C484        C  0.28177889  0.89670908  0.38770827    -0.26500
O485        O  0.19026611  0.89674315  0.37152426    -0.58300
H486        H  0.20013838  0.93957937  0.41997140     0.16200
O487        O  0.31515598  0.92770765  0.42683326    -0.59800
H488        H  0.30453683  0.88457094  0.37869842     0.14700
H489        H  0.28304812  0.76675452  0.33696823     0.46600
H490        H  0.18237562  0.87657291  0.38395243     0.41900
H491        H  0.31911652  0.91053625  0.44450574     0.45400
H492        H  0.21202836  0.90610426  0.30269506     0.36900
C493        C  0.24987880  0.18509022  0.64231357    -0.27400
C494        C  0.25389740  0.15102775  0.65050209     0.02200
C495        C  0.25708365  0.14161328  0.68454985     0.30300
C496        C  0.25628759  0.16612274  0.70979590    -0.19200
C497        C  0.25218862  0.20025574  0.70166547    -0.28600
C498        C  0.24916078  0.20963134  0.66752111     0.44300
C499        C  0.25499387  0.12551056  0.62338494     0.05500
O500        O  0.26075988  0.10848405  0.69342192    -0.57100
H501        H  0.25852698  0.15837935  0.73586380     0.18500
O502        O  0.24629127  0.24277458  0.65841630    -0.63800
H503        H  0.24794840  0.19276381  0.61620186     0.16900
C504        C  0.22836686  0.12244119  0.60014448     0.29200
C505        C  0.22942677  0.09739929  0.57543462    -0.24700
C506        C  0.25714472  0.07551583  0.57300778    -0.24000
C507        C  0.28406270  0.07901155  0.59595757     0.40600
C508        C  0.28281619  0.10384845  0.62087767    -0.26500
O509        O  0.20058213  0.14289398  0.60228981    -0.58300
H510        H  0.20850420  0.09523666  0.55800095     0.16200
O511        O  0.31144510  0.05798745  0.59468692    -0.59800
H512        H  0.30364622  0.10617796  0.63839777     0.14700
H513        H  0.26981777  0.25103404  0.65620179     0.46600
H514        H  0.20318360  0.15941729  0.58374693     0.41900
H515        H  0.30504118  0.03820699  0.60851242     0.45400
H516        H  0.23745667  0.09945997  0.69487128     0.36900
C517        C  0.22380088  0.85242040  0.66886501    -0.27400
C518        C  0.25217409  0.85535051  0.64782142     0.02200
C519        C  0.27918546  0.83267412  0.65182527     0.30300
C520        C  0.27724777  0.80722958  0.67610383    -0.19200
C521        C  0.24843048  0.80374305  0.69640533    -0.28600
C522        C  0.22180873  0.82686581  0.69300090     0.44300
C523        C  0.25305655  0.88179708  0.62150419     0.05500
O524        O  0.30731358  0.83479410  0.63176239    -0.57100
H525        H  0.29803811  0.78973839  0.67867867     0.18500
O526        O  0.19391812  0.82490393  0.71339522    -0.63800
H527        H  0.20316992  0.87013166  0.66667011     0.16900
C528        C  0.22673315  0.88469550  0.59785814     0.29200
C529        C  0.22779733  0.90994328  0.57331961    -0.24700
C530        C  0.25506286  0.93244071  0.57168016    -0.24000
C531        C  0.28150869  0.92944371  0.59529266     0.40600
C532        C  0.28031002  0.90432622  0.61996188    -0.26500
O533        O  0.20066403  0.86194628  0.59759033    -0.58300
H534        H  0.20748075  0.91152324  0.55513457     0.16200
O535        O  0.30844950  0.95114884  0.59479930    -0.59800
H536        H  0.30058958  0.90264546  0.63817918     0.14700
H537        H  0.19990860  0.83788984  0.73386919     0.46600
H538        H  0.18091201  0.87424041  0.60672123     0.41900
H539        H  0.30167451  0.97022591  0.60938984     0.45400
H540        H  0.30176045  0.82156459  0.61132722     0.36900
C541        C  0.63787943  0.74521782  0.17524987    -0.27400
C542        C  0.64694879  0.74439221  0.14111659     0.02200
C543        C  0.68126444  0.74542821  0.13209594     0.30300
C544        C  0.70602809  0.74776042  0.15710707    -0.19200
C545        C  0.69703153  0.74918710  0.19133278    -0.28600
C546        C  0.66262534  0.74758929  0.20030857     0.44300
C547        C  0.62035181  0.74428887  0.11506493     0.05500
O548        O  0.69078661  0.74444038  0.09888659    -0.57100
H549        H  0.73235773  0.74875529  0.14975824     0.18500
O550        O  0.65293608  0.74803145  0.23347631    -0.63800
H551        H  0.61149515  0.74446106  0.18242788     0.16900
C552        C  0.59935588  0.71619073  0.11023854     0.29200
C553        C  0.57360732  0.71729951  0.08608301    -0.24700
C554        C  0.56810580  0.74645518  0.06672583    -0.24000
C555        C  0.58971415  0.77436679  0.07136019     0.40600
C556        C  0.61549297  0.77309146  0.09538257    -0.26500
O557        O  0.60441523  0.68727878  0.12837845    -0.58300
H558        H  0.55772318  0.69535635  0.08275786     0.16200
O559        O  0.58609545  0.80300989  0.05247952    -0.59800
H560        H  0.63165163  0.79482118  0.09887821     0.14700
H561        H  0.65354459  0.72419973  0.24079920     0.46600
H562        H  0.58874828  0.68885819  0.14780056     0.41900
H563        H  0.60033027  0.79938262  0.03224528     0.45400
H564        H  0.69160590  0.72020708  0.09305308     0.36900
C565        C  0.71726337  0.89503095  0.38051316    -0.27400
C566        C  0.74609609  0.87538407  0.37503929     0.02200
C567        C  0.77488811  0.88078764  0.39504071     0.30300
C568        C  0.77457939  0.90561092  0.42009689    -0.19200
C569        C  0.74562189  0.92520051  0.42594468    -0.28600
C570        C  0.71679268  0.91971229  0.40568105     0.44300
C571        C  0.74612731  0.84993693  0.34777120     0.05500
O572        O  0.80390537  0.86289400  0.38926061    -0.57100
H573        H  0.79712685  0.90941217  0.43504630     0.18500
O574        O  0.68807642  0.93846779  0.40992276    -0.63800
H575        H  0.69499174  0.89119893  0.36514688     0.16900
C576        C  0.75032657  0.81553016  0.35490203     0.29200
C577        C  0.75100058  0.79205330  0.32862028    -0.24700
C578        C  0.74719252  0.80227881  0.29492762    -0.24000
C579        C  0.74254713  0.83674068  0.28788609     0.40600
C580        C  0.74200468  0.86022460  0.31423397    -0.26500
O581        O  0.75364013  0.80458027  0.38749189    -0.58300
H582        H  0.75417335  0.76566914  0.33461948     0.16200
O583        O  0.74038250  0.84789093  0.25525346    -0.59800
H584        H  0.73895729  0.88667060  0.30841890     0.14700
H585        H  0.69121247  0.95847600  0.39532707     0.46600
H586        H  0.73022615  0.80199420  0.39596556     0.41900
H587        H  0.71649651  0.85464753  0.25213972     0.45400
H588        H  0.80545959  0.84662151  0.40812321     0.36900
C589        C  0.18179404  0.64613824  0.25120587    -0.27400
C590        C  0.14778372  0.65453677  0.25623999     0.02200
C591        C  0.13868962  0.68847273  0.26028149     0.30300
C592        C  0.16340357  0.71351877  0.25880384    -0.19200
C593        C  0.19742543  0.70527329  0.25325431    -0.28600
C594        C  0.20659136  0.67117739  0.24989375     0.44300
C595        C  0.12182475  0.62783313  0.25657531     0.05500
O596        O  0.10561625  0.69744798  0.26507945    -0.57100
H597        H  0.15583821  0.73957112  0.26131093     0.18500
O598        O  0.23969116  0.66200897  0.24569934    -0.63800
H599        H  0.18913881  0.62004108  0.24852421     0.16900
C600        C  0.11692196  0.60714858  0.22829157     0.29200
C601        C  0.09158127  0.58265349  0.22861237    -0.24700
C602        C  0.07110190  0.57792085  0.25716680    -0.24000
C603        C  0.07623364  0.59866443  0.28561201     0.40600
C604        C  0.10141594  0.62337846  0.28509658    -0.26500
O605        O  0.13597401  0.61156929  0.19975465    -0.58300
H606        H  0.08819629  0.56712876  0.20644668     0.16200
O607        O  0.05676115  0.59522329  0.31398570    -0.59800
H608        H  0.10506373  0.63914244  0.30706325     0.14700
H609        H  0.24906707  0.66055600  0.26880702     0.46600
H610        H  0.15314209  0.59345568  0.20038321     0.41900
H611        H  0.03733016  0.61053656  0.31053796     0.45400
H612        H  0.09606085  0.69977618  0.24211700     0.36900
C613        C  0.88528309  0.40080527  0.22700279    -0.27400
C614        C  0.88251542  0.37877711  0.25449704     0.02200
C615        C  0.90452554  0.38280543  0.28208847     0.30300
C616        C  0.92869984  0.40853803  0.28186892    -0.19200
C617        C  0.93142996  0.43059093  0.25433656    -0.28600
C618        C  0.90923808  0.42666475  0.22687025     0.44300
C619        C  0.85667935  0.35169236  0.25394547     0.05500
O620        O  0.90248884  0.36186383  0.30947194    -0.57100
H621        H  0.94549108  0.41111272  0.30324943     0.18500
O622        O  0.91034036  0.44824635  0.19993868    -0.63800
H623        H  0.86882998  0.39789285  0.20541975     0.16900
C624        C  0.82248517  0.35899468  0.24757606     0.29200
C625        C  0.79859755  0.33301220  0.24667553    -0.24700
C626        C  0.80822473  0.29938187  0.25166587    -0.24000
C627        C  0.84258851  0.29210511  0.25765191     0.40600
C628        C  0.86637437  0.31814110  0.25897932    -0.26500
O629        O  0.81198574  0.39162236  0.24359789    -0.58300
H630        H  0.77233031  0.33929629  0.24251663     0.16200
O631        O  0.85339125  0.25959523  0.26160821    -0.59800
H632        H  0.89265999  0.31201812  0.26328838     0.14700
H633        H  0.89563929  0.46736854  0.20636086     0.46600
H634        H  0.80679000  0.39400606  0.21927568     0.41900
H635        H  0.85696114  0.25102335  0.23842446     0.45400
H636        H  0.88670592  0.37312360  0.32523471     0.36900
C637        C  0.87993927  0.60501609  0.27438623    -0.27400
C638        C  0.87563292  0.62273484  0.24422114     0.02200
C639        C  0.89615093  0.61514371  0.21639272     0.30300
C640        C  0.92125562  0.59056433  0.21921898    -0.19200
C641        C  0.92633946  0.57318524  0.24971598    -0.28600
C642        C  0.90499121  0.58039261  0.27731988     0.44300
C643        C  0.85004160  0.64958123  0.24236613     0.05500
O644        O  0.89209042  0.63188780  0.18646594    -0.57100
H645        H  0.93706851  0.58545113  0.19754826     0.18500
O646        O  0.90836673  0.56370059  0.30735055    -0.63800
H647        H  0.86400953  0.61058880  0.29587010     0.16900
C648        C  0.81556378  0.64168073  0.23994671     0.29200
C649        C  0.79156702  0.66743458  0.23968694    -0.24700
C650        C  0.80148819  0.70131693  0.24187667    -0.24000
C651        C  0.83614796  0.70917352  0.24392730     0.40600
C652        C  0.86014859  0.68333779  0.24410684    -0.26500
O653        O  0.80510615  0.60883950  0.23822170    -0.58300
H654        H  0.76504744  0.66090189  0.23819969     0.16200
O655        O  0.84683121  0.74194682  0.24559090    -0.59800
H656        H  0.88671128  0.68960170  0.24594339     0.14700
H657        H  0.89346066  0.54374605  0.30542096     0.46600
H658        H  0.80444269  0.60349036  0.21383316     0.41900
H659        H  0.84864884  0.74945187  0.22183747     0.45400
H660        H  0.87426228  0.61928085  0.17427939     0.36900
C661        C  0.36551419  0.25623362  0.18831461    -0.27400
C662        C  0.35564440  0.25651639  0.15443188     0.02200
C663        C  0.32125615  0.25956883  0.14623281     0.30300
C664        C  0.29709623  0.26156978  0.17187189    -0.19200
C665        C  0.30685154  0.26059716  0.20585648    -0.28600
C666        C  0.34144861  0.25842900  0.21396100     0.44300
C667        C  0.38155362  0.25442818  0.12781582     0.05500
O668        O  0.31105979  0.26053463  0.11324375    -0.57100
H669        H  0.27063366  0.26320591  0.16520435     0.18500
O670        O  0.35200278  0.25847666  0.24686414    -0.63800
H671        H  0.39198122  0.25418454  0.19486129     0.16900
C672        C  0.40538424  0.28030381  0.12389675     0.29200
C673        C  0.42958225  0.27830282  0.09837699    -0.24700
C674        C  0.43089150  0.25032116  0.07680445    -0.24000
C675        C  0.40702913  0.22425013  0.08089953     0.40600
C676        C  0.38251747  0.22650490  0.10625595    -0.26500
O677        O  0.40445555  0.30818414  0.14421883    -0.58300
H678        H  0.44760108  0.29864817  0.09568117     0.16200
O679        O  0.40705556  0.19677273  0.06002464    -0.59800
H680        H  0.36423412  0.20641811  0.10916298     0.14700
H681        H  0.35407465  0.28255048  0.25304346     0.46600
H682        H  0.42157135  0.30400135  0.16193990     0.41900
H683        H  0.39283911  0.20329931  0.04054334     0.45400
H684        H  0.31320478  0.28444255  0.10645133     0.36900
C685        C  0.28651766  0.10698310  0.38477882    -0.27400
C686        C  0.25989186  0.13011582  0.38332034     0.02200
C687        C  0.23285011  0.12719426  0.40616117     0.30300
C688        C  0.23236073  0.10101338  0.42959546    -0.19200
C689        C  0.25897383  0.07781554  0.43112706    -0.28600
C690        C  0.28626492  0.08099913  0.40847451     0.44300
C691        C  0.25986601  0.15655914  0.35721234     0.05500
O692        O  0.20686618  0.14995291  0.40588104    -0.57100
H693        H  0.21135041  0.09920833  0.44699656     0.18500
O694        O  0.31252656  0.05855684  0.40881661    -0.63800
H695        H  0.30725512  0.10867966  0.36705071     0.16900
C696        C  0.28697211  0.17928961  0.35400948     0.29200
C697        C  0.28577835  0.20456231  0.32952086    -0.24700
C698        C  0.25781424  0.20736876  0.30807636    -0.24000
C699        C  0.23119376  0.18411194  0.31067271     0.40600
C700        C  0.23228656  0.15899401  0.33519663    -0.26500
O701        O  0.31391762  0.17789727  0.37565374    -0.58300
H702        H  0.30647585  0.22230287  0.32754661     0.16200
O703        O  0.20419250  0.18555577  0.28912166    -0.59800
H704        H  0.21162783  0.14118825  0.33692567     0.14700
H705        H  0.30497881  0.03952291  0.39452937     0.46600
H706        H  0.33259816  0.16789555  0.36238230     0.41900
H707        H  0.21114821  0.17238759  0.26907238     0.45400
H708        H  0.21431685  0.16845956  0.42089047     0.36900
C709        C  0.10570577  0.39023681  0.28848763    -0.27400
C710        C  0.12619548  0.38537611  0.26003607     0.02200
C711        C  0.12137797  0.40601137  0.23160618     0.30300
C712        C  0.09599540  0.43042494  0.23165192    -0.19200
C713        C  0.07529941  0.43526285  0.26003710    -0.28600
C714        C  0.08067385  0.41509445  0.28879902     0.44300
C715        C  0.15238673  0.35868417  0.26010692     0.05500
O716        O  0.14146405  0.40265490  0.20364524    -0.57100
H717        H  0.09270333  0.44582065  0.20938219     0.18500
O718        O  0.06072863  0.41840948  0.31684590    -0.63800
H719        H  0.10881282  0.37436765  0.31044825     0.16900
C720        C  0.17652704  0.35668949  0.28612456     0.29200
C721        C  0.20122082  0.33156287  0.28543842    -0.24700
C722        C  0.20266011  0.30855966  0.25871685    -0.24000
C723        C  0.17849105  0.31026991  0.23287593     0.40600
C724        C  0.15343697  0.33504669  0.23380243    -0.26500
O725        O  0.17658266  0.37951270  0.31202416    -0.58300
H726        H  0.21975816  0.33042653  0.30546349     0.16200
O727        O  0.17851665  0.28710893  0.20727544    -0.59800
H728        H  0.13468971  0.33574654  0.21396218     0.14700
H729        H  0.07369464  0.43313485  0.33231656     0.46600
H730        H  0.18890749  0.39936865  0.30318904     0.41900
H731        H  0.19078440  0.29808823  0.18846509     0.45400
H732        H  0.16217216  0.41572546  0.20875565     0.36900
loop_ 
_geom_bond_atom_site_label_1 
_geom_bond_atom_site_label_2 
_geom_bond_distance 
_geom_bond_site_symmetry_2 
_ccdc_geom_bond_type 
C1            C2   1.401       .  A
C1            C6   1.398       .  A
C1          C698   1.471       .  S
C2            C3   1.401       .  A
C2            H7   1.084       .  S
C3            C4   1.404       .  A
C3          C722   1.475       .  S
C4            C5   1.405       .  A
C4            H8   1.084       .  S
C5            C6   1.402       .  A
C5          C665   1.480       .  S
C6            H9   1.084       .  S
O10         Ni18   1.914       .  S
O10          C20   1.281       .  A
O11         Ni18   1.916   1_455  S
O11          C21   1.281       .  A
O12         Ni18   1.922       .  S
O12          C22   1.283       .  A
O13         Ni18   1.921   1_455  S
O13          C23   1.282       .  A
O14         Ni19   1.914       .  S
O14          C23   1.281       .  A
O15         Ni19   1.914   1_655  S
O15          C22   1.281       .  A
O16         Ni19   1.915       .  S
O16          C21   1.282       .  A
O17         Ni19   1.917   1_655  S
O17          C20   1.282       .  A
Ni18        Ni19   2.385   1_655  S
C20         C617   1.479       .  S
C21         C602   1.482       .  S
C22         C641   1.486       .  S
C23         C713   1.485       .  S
C24          C25   1.405       .  A
C24          C29   1.402       .  A
C24         C650   1.483       .  S
C25          C26   1.407       .  A
C25          H30   1.084       .  S
C26          C27   1.407       .  A
C26         C578   1.488       .  S
C27          C28   1.406       .  A
C27          H31   1.083       .  S
C28          C29   1.401       .  A
C28         C545   1.483       .  S
C29          H32   1.084       .  S
O33         Ni41   1.915       .  S
O33          C43   1.282       .  A
O34         Ni41   1.920   1_565  S
O34          C44   1.282       .  A
O35         Ni41   1.909       .  S
O35          C45   1.280       .  A
O36         Ni41   1.910   1_565  S
O36          C46   1.280       .  A
O37         Ni42   1.919   1_565  S
O37          C46   1.282       .  A
O38         Ni42   1.918       .  S
O38          C45   1.282       .  A
O39         Ni42   1.910   1_565  S
O39          C44   1.279       .  A
O40         Ni42   1.908       .  S
O40          C43   1.279       .  A
Ni41        Ni42   2.387       .  S
C43         C689   1.474       .  S
C44         C530   1.478       .  S
C45         C506   1.478       .  S
C46         C482   1.485       .  S
O47         Ni55   1.921       .  S
O47          C57   1.283       .  A
O48         Ni55   1.920   1_545  S
O48          C58   1.282       .  A
O49         Ni55   1.916       .  S
O49          C59   1.282       .  A
O50         Ni55   1.918   1_545  S
O50          C60   1.281       .  A
O51         Ni56   1.918   1_545  S
O51          C60   1.282       .  A
O52         Ni56   1.918       .  S
O52          C59   1.281       .  A
O53         Ni56   1.913   1_545  S
O53          C58   1.281       .  A
O54         Ni56   1.915       .  S
O54          C57   1.281       .  A
Ni55        Ni56   2.384       .  S
C57         C569   1.487       .  S
C58         C458   1.484       .  S
C59         C425   1.486       .  S
C60         C410   1.486       .  S
C61          C62   1.404       .  A
C61          C66   1.403       .  A
C61         C353   1.485       .  S
C62          C63   1.406       .  A
C62          H67   1.083       .  S
C63          C64   1.406       .  A
C63         C377   1.488       .  S
C64          C65   1.405       .  A
C64          H68   1.084       .  S
C65          C66   1.400       .  A
C65         C521   1.478       .  S
C66          H69   1.084       .  S
O70         Ni78   1.924   1_455  S
O70          C80   1.284       .  A
O71         Ni78   1.924       .  S
O71          C81   1.283       .  A
O72         Ni78   1.921   1_455  S
O72          C82   1.283       .  A
O73         Ni78   1.925       .  S
O73          C83   1.282       .  A
O74         Ni79   1.917       .  S
O74          C83   1.282       .  A
O75         Ni79   1.918   1_455  S
O75          C82   1.281       .  A
O76         Ni79   1.912       .  S
O76          C81   1.281       .  A
O77         Ni79   1.914   1_455  S
O77          C80   1.280       .  A
Ni78        Ni79   2.383       .  S
C80         C290   1.490       .  S
C81         C305   1.485       .  S
C82         C386   1.487       .  S
C83         C329   1.488       .  S
C84          C85   1.406       .  A
C84          C89   1.403       .  A
C84         C338   1.485       .  S
C85          C86   1.405       .  A
C85          H90   1.084       .  S
C86          C87   1.404       .  A
C86         C257   1.483       .  S
C87          C88   1.403       .  A
C87          H91   1.084       .  S
C88          C89   1.402       .  A
C88         C449   1.475       .  S
C89          H92   1.084       .  S
O93        Ni101   1.918       .  S
O93         C103   1.282       .  A
O94        Ni101   1.920   1_554  S
O94         C104   1.282       .  A
O95        Ni101   1.912       .  S
O95         C105   1.280       .  A
O96        Ni101   1.912   1_554  S
O96         C106   1.281       .  A
O97        Ni102   1.916   1_554  S
O97         C106   1.281       .  A
O98        Ni102   1.917       .  S
O98         C105   1.282       .  A
O99        Ni102   1.915   1_554  S
O99         C104   1.281       .  A
O100       Ni102   1.914       .  S
O100        C103   1.281       .  A
Ni101      Ni102   2.385       .  S
C103        C362   1.486       .  S
C104        C554   1.485       .  S
C105        C218   1.479       .  S
C106        C233   1.481       .  S
O107       Ni115   1.915   1_556  S
O107        C117   1.281       .  A
O108       Ni115   1.910       .  S
O108        C118   1.280       .  A
O109       Ni115   1.913       .  S
O109        C119   1.281       .  A
O110       Ni115   1.912   1_556  S
O110        C120   1.281       .  A
O111       Ni116   1.916   1_556  S
O111        C120   1.281       .  A
O112       Ni116   1.916       .  S
O112        C119   1.282       .  A
O113       Ni116   1.921       .  S
O113        C118   1.282       .  A
O114       Ni116   1.921   1_556  S
O114        C117   1.283       .  A
Ni115      Ni116   2.386       .  S
C117        C266   1.484       .  S
C118        C674   1.478       .  S
C119        C185   1.483       .  S
C120        C170   1.482       .  S
C121        C122   1.407       .  A
C121        C126   1.403       .  A
C121        C434   1.488       .  S
C122        C123   1.407       .  A
C122        H127   1.082       .  S
C123        C124   1.408       .  A
C123        C314   1.492       .  S
C124        C125   1.405       .  A
C124        H128   1.083       .  S
C125        C126   1.402       .  A
C125        C209   1.483       .  S
C126        H129   1.084       .  S
C130        C131   1.408       .  A
C130        C135   1.406       .  A
C130        C626   1.489       .  S
C131        C132   1.405       .  A
C131        H136   1.084       .  S
C132        C133   1.403       .  A
C132        C194   1.483       .  S
C133        C134   1.402       .  A
C133        H137   1.084       .  S
C134        C135   1.404       .  A
C134        C401   1.483       .  S
C135        H138   1.083       .  S
C139        C140   1.403       .  A
C139        C144   1.403       .  A
C139        C497   1.483       .  S
C140        C141   1.405       .  A
C140        H145   1.083       .  S
C141        C142   1.406       .  A
C141        C161   1.488       .  S
C142        C143   1.403       .  A
C142        H146   1.083       .  S
C143        C144   1.403       .  A
C143        C281   1.483       .  S
C144        H147   1.083       .  S
C148        C149   1.405       .  A
C148        C153   1.404       .  A
C148        C242   1.482       .  S
C149        C150   1.404       .  A
C149        H154   1.083       .  S
C150        C151   1.402       .  A
C150        C593   1.481       .  S
C151        C152   1.400       .  A
C151        H155   1.084       .  S
C152        C153   1.400       .  A
C152        C473   1.473       .  S
C153        H156   1.084       .  S
C157        C158   1.401       .  A
C157        C162   1.399       .  A
C157        H167   1.084       .  S
C158        C159   1.407       .  A
C158        C163   1.478       .  S
C159        C160   1.398       .  A
C159        O164   1.372       .  S
C160        C161   1.407       .  A
C160        H165   1.083       .  S
C161        C162   1.414       .  A
C162        O166   1.371       .  S
C163        C168   1.407       .  A
C163        C172   1.401       .  A
O164        H180   0.992       .  S
O166        H177   0.992       .  S
C168        C169   1.400       .  A
C168        O173   1.372       .  S
C169        C170   1.407       .  A
C169        H174   1.083       .  S
C170        C171   1.413       .  A
C171        C172   1.397       .  A
C171        O175   1.371       .  S
C172        H176   1.084       .  S
O173        H178   0.992       .  S
O175        H179   0.992       .  S
C181        C182   1.399       .  A
C181        C186   1.400       .  A
C181        H191   1.084       .  S
C182        C183   1.403       .  A
C182        C187   1.472       .  S
C183        C184   1.398       .  A
C183        O188   1.371       .  S
C184        C185   1.408       .  A
C184        H189   1.083       .  S
C185        C186   1.414       .  A
C186        O190   1.372       .  S
C187        C192   1.406       .  A
C187        C196   1.399       .  A
O188        H204   0.992       .  S
O190        H201   0.992       .  S
C192        C193   1.401       .  A
C192        O197   1.372       .  S
C193        C194   1.405       .  A
C193        H198   1.083       .  S
C194        C195   1.412       .  A
C195        C196   1.398       .  A
C195        O199   1.371       .  S
C196        H200   1.084       .  S
O197        H202   0.992       .  S
O199        H203   0.992       .  S
C205        C206   1.403       .  A
C205        C210   1.399       .  A
C205        H215   1.084       .  S
C206        C207   1.408       .  A
C206        C211   1.480       .  S
C207        C208   1.400       .  A
C207        O212   1.372       .  S
C208        C209   1.404       .  A
C208        H213   1.083       .  S
C209        C210   1.411       .  A
C210        O214   1.372       .  S
C211        C216   1.408       .  A
C211        C220   1.402       .  A
O212        H228   0.992       .  S
O214        H225   0.992       .  S
C216        C217   1.400       .  A
C216        O221   1.372       .  S
C217        C218   1.405       .  A
C217        H222   1.084       .  S
C218        C219   1.411       .  A
C219        C220   1.399       .  A
C219        O223   1.372       .  S
C220        H224   1.084       .  S
O221        H226   0.992       .  S
O223        H227   0.992       .  S
C229        C230   1.402       .  A
C229        C234   1.399       .  A
C229        H239   1.084       .  S
C230        C231   1.406       .  A
C230        C235   1.477       .  S
C231        C232   1.397       .  A
C231        O236   1.372       .  S
C232        C233   1.407       .  A
C232        H237   1.083       .  S
C233        C234   1.413       .  A
C234        O238   1.372       .  S
C235        C240   1.407       .  A
C235        C244   1.401       .  A
O236        H252   0.992       .  S
O238        H249   0.992       .  S
C240        C241   1.400       .  A
C240        O245   1.372       .  S
C241        C242   1.405       .  A
C241        H246   1.083       .  S
C242        C243   1.411       .  A
C243        C244   1.397       .  A
C243        O247   1.372       .  S
C244        H248   1.084       .  S
O245        H250   0.992       .  S
O247        H251   0.992       .  S
C253        C254   1.404       .  A
C253        C258   1.402       .  A
C253        H263   1.084       .  S
C254        C255   1.407       .  A
C254        C259   1.481       .  S
C255        C256   1.399       .  A
C255        O260   1.371       .  S
C256        C257   1.404       .  A
C256        H261   1.084       .  S
C257        C258   1.410       .  A
C258        O262   1.372       .  S
C259        C264   1.406       .  A
C259        C268   1.402       .  A
O260        H276   0.992       .  S
O262        H273   0.992       .  S
C264        C265   1.401       .  A
C264        O269   1.372       .  S
C265        C266   1.407       .  A
C265        H270   1.083       .  S
C266        C267   1.412       .  A
C267        C268   1.400       .  A
C267        O271   1.371       .  S
C268        H272   1.084       .  S
O269        H274   0.992       .  S
O271        H275   0.992       .  S
C277        C278   1.401       .  A
C277        C282   1.400       .  A
C277        H287   1.084       .  S
C278        C279   1.405       .  A
C278        C283   1.475       .  S
C279        C280   1.400       .  A
C279        O284   1.371       .  S
C280        C281   1.405       .  A
C280        H285   1.083       .  S
C281        C282   1.411       .  A
C282        O286   1.372       .  S
C283        C288   1.404       .  A
C283        C292   1.399       .  A
O284        H300   0.992       .  S
O286        H297   0.992       .  S
C288        C289   1.400       .  A
C288        O293   1.372       .  S
C289        C290   1.408       .  A
C289        H294   1.083       .  S
C290        C291   1.417       .  A
C291        C292   1.401       .  A
C291        O295   1.371       .  S
C292        H296   1.084       .  S
O293        H298   0.992       .  S
O295        H299   0.992       .  S
C301        C302   1.402       .  A
C301        C306   1.398       .  A
C301        H311   1.083       .  S
C302        C303   1.410       .  A
C302        C307   1.486       .  S
C303        C304   1.403       .  A
C303        O308   1.372       .  S
C304        C305   1.406       .  A
C304        H309   1.083       .  S
C305        C306   1.413       .  A
C306        O310   1.372       .  S
C307        C312   1.408       .  A
C307        C316   1.404       .  A
O308        H324   0.992       .  S
O310        H321   0.992       .  S
C312        C313   1.401       .  A
C312        O317   1.372       .  S
C313        C314   1.406       .  A
C313        H318   1.083       .  S
C314        C315   1.414       .  A
C315        C316   1.402       .  A
C315        O319   1.372       .  S
C316        H320   1.084       .  S
O317        H322   0.992       .  S
O319        H323   0.992       .  S
C325        C326   1.403       .  A
C325        C330   1.404       .  A
C325        H335   1.084       .  S
C326        C327   1.406       .  A
C326        C331   1.483       .  S
C327        C328   1.400       .  A
C327        O332   1.373       .  S
C328        C329   1.407       .  A
C328        H333   1.083       .  S
C329        C330   1.414       .  A
C330        O334   1.371       .  S
C331        C336   1.407       .  A
C331        C340   1.404       .  A
O332        H348   0.992       .  S
O334        H345   0.992       .  S
C336        C337   1.401       .  A
C336        O341   1.372       .  S
C337        C338   1.404       .  A
C337        H342   1.084       .  S
C338        C339   1.411       .  A
C339        C340   1.403       .  A
C339        O343   1.372       .  S
C340        H344   1.084       .  S
O341        H346   0.992       .  S
O343        H347   0.992       .  S
C349        C350   1.401       .  A
C349        C354   1.399       .  A
C349        H359   1.084       .  S
C350        C351   1.405       .  A
C350        C355   1.474       .  S
C351        C352   1.399       .  A
C351        O356   1.372       .  S
C352        C353   1.406       .  A
C352        H357   1.083       .  S
C353        C354   1.412       .  A
C354        O358   1.372       .  S
C355        C360   1.404       .  A
C355        C364   1.400       .  A
O356        H372   0.992       .  S
O358        H369   0.992       .  S
C360        C361   1.399       .  A
C360        O365   1.372       .  S
C361        C362   1.409       .  A
C361        H366   1.083       .  S
C362        C363   1.414       .  A
C363        C364   1.400       .  A
C363        O367   1.371       .  S
C364        H368   1.084       .  S
O365        H370   0.992       .  S
O367        H371   0.992       .  S
C373        C374   1.401       .  A
C373        C378   1.398       .  A
C373        H383   1.084       .  S
C374        C375   1.407       .  A
C374        C379   1.480       .  S
C375        C376   1.404       .  A
C375        O380   1.372       .  S
C376        C377   1.407       .  A
C376        H381   1.083       .  S
C377        C378   1.412       .  A
C378        O382   1.372       .  S
C379        C384   1.406       .  A
C379        C388   1.401       .  A
O380        H396   0.992       .  S
O382        H393   0.992       .  S
C384        C385   1.401       .  A
C384        O389   1.372       .  S
C385        C386   1.408       .  A
C385        H390   1.083       .  S
C386        C387   1.414       .  A
C387        C388   1.401       .  A
C387        O391   1.371       .  S
C388        H392   1.084       .  S
O389        H394   0.992       .  S
O391        H395   0.992       .  S
C397        C398   1.402       .  A
C397        C402   1.400       .  A
C397        H407   1.084       .  S
C398        C399   1.406       .  A
C398        C403   1.477       .  S
C399        C400   1.400       .  A
C399        O404   1.371       .  S
C400        C401   1.405       .  A
C400        H405   1.083       .  S
C401        C402   1.411       .  A
C402        O406   1.372       .  S
C403        C408   1.404       .  A
C403        C412   1.401       .  A
O404        H420   0.992       .  S
O406        H417   0.992       .  S
C408        C409   1.399       .  A
C408        O413   1.372       .  S
C409        C410   1.407       .  A
C409        H414   1.083       .  S
C410        C411   1.415       .  A
C411        C412   1.401       .  A
C411        O415   1.371       .  S
C412        H416   1.084       .  S
O413        H418   0.992       .  S
O415        H419   0.992       .  S
C421        C422   1.401       .  A
C421        C426   1.402       .  A
C421        H431   1.084       .  S
C422        C423   1.405       .  A
C422        C427   1.478       .  S
C423        C424   1.398       .  A
C423        O428   1.372       .  S
C424        C425   1.407       .  A
C424        H429   1.083       .  S
C425        C426   1.415       .  A
C426        O430   1.371       .  S
C427        C432   1.406       .  A
C427        C436   1.401       .  A
O428        H444   0.992       .  S
O430        H441   0.992       .  S
C432        C433   1.401       .  A
C432        O437   1.372       .  S
C433        C434   1.408       .  A
C433        H438   1.083       .  S
C434        C435   1.412       .  A
C435        C436   1.398       .  A
C435        O439   1.371       .  S
C436        H440   1.084       .  S
O437        H442   0.992       .  S
O439        H443   0.992       .  S
C445        C446   1.405       .  A
C445        C450   1.399       .  A
C445        H455   1.083       .  S
C446        C447   1.412       .  A
C446        C451   1.486       .  S
C447        C448   1.400       .  A
C447        O452   1.372       .  S
C448        C449   1.401       .  A
C448        H453   1.084       .  S
C449        C450   1.406       .  A
C450        O454   1.372       .  S
C451        C456   1.410       .  A
C451        C460   1.403       .  A
O452        H468   0.992       .  S
O454        H465   0.992       .  S
C456        C457   1.400       .  A
C456        O461   1.372       .  S
C457        C458   1.406       .  A
C457        H462   1.083       .  S
C458        C459   1.413       .  A
C459        C460   1.398       .  A
C459        O463   1.372       .  S
C460        H464   1.083       .  S
O461        H466   0.992       .  S
O463        H467   0.992       .  S
C469        C470   1.401       .  A
C469        C474   1.396       .  A
C469        H479   1.084       .  S
C470        C471   1.406       .  A
C470        C475   1.472       .  S
C471        C472   1.400       .  A
C471        O476   1.372       .  S
C472        C473   1.403       .  A
C472        H477   1.084       .  S
C473        C474   1.408       .  A
C474        O478   1.372       .  S
C475        C480   1.403       .  A
C475        C484   1.400       .  A
O476        H492   0.992       .  S
O478        H489   0.992       .  S
C480        C481   1.398       .  A
C480        O485   1.372       .  S
C481        C482   1.409       .  A
C481        H486   1.083       .  S
C482        C483   1.414       .  A
C483        C484   1.399       .  A
C483        O487   1.371       .  S
C484        H488   1.084       .  S
O485        H490   0.992       .  S
O487        H491   0.992       .  S
C493        C494   1.402       .  A
C493        C498   1.398       .  A
C493        H503   1.083       .  S
C494        C495   1.408       .  A
C494        C499   1.480       .  S
C495        C496   1.399       .  A
C495        O500   1.372       .  S
C496        C497   1.405       .  A
C496        H501   1.083       .  S
C497        C498   1.411       .  A
C498        O502   1.372       .  S
C499        C504   1.407       .  A
C499        C508   1.403       .  A
O500        H516   0.992       .  S
O502        H513   0.992       .  S
C504        C505   1.399       .  A
C504        O509   1.372       .  S
C505        C506   1.405       .  A
C505        H510   1.084       .  S
C506        C507   1.410       .  A
C507        C508   1.399       .  A
C507        O511   1.371       .  S
C508        H512   1.084       .  S
O509        H514   0.992       .  S
O511        H515   0.992       .  S
C517        C518   1.405       .  A
C517        C522   1.399       .  A
C517        H527   1.083       .  S
C518        C519   1.410       .  A
C518        C523   1.483       .  S
C519        C520   1.399       .  A
C519        O524   1.372       .  S
C520        C521   1.404       .  A
C520        H525   1.084       .  S
C521        C522   1.407       .  A
C522        O526   1.371       .  S
C523        C528   1.409       .  A
C523        C532   1.403       .  A
O524        H540   0.992       .  S
O526        H537   0.992       .  S
C528        C529   1.400       .  A
C528        O533   1.372       .  S
C529        C530   1.403       .  A
C529        H534   1.084       .  S
C530        C531   1.412       .  A
C531        C532   1.400       .  A
C531        O535   1.372       .  S
C532        H536   1.084       .  S
O533        H538   0.992       .  S
O535        H539   0.992       .  S
C541        C542   1.402       .  A
C541        C546   1.400       .  A
C541        H551   1.084       .  S
C542        C543   1.406       .  A
C542        C547   1.477       .  S
C543        C544   1.399       .  A
C543        O548   1.372       .  S
C544        C545   1.406       .  A
C544        H549   1.084       .  S
C545        C546   1.410       .  A
C546        O550   1.371       .  S
C547        C552   1.405       .  A
C547        C556   1.400       .  A
O548        H564   0.992       .  S
O550        H561   0.992       .  S
C552        C553   1.401       .  A
C552        O557   1.372       .  S
C553        C554   1.408       .  A
C553        H558   1.083       .  S
C554        C555   1.413       .  A
C555        C556   1.399       .  A
C555        O559   1.371       .  S
C556        H560   1.084       .  S
O557        H562   0.992       .  S
O559        H563   0.992       .  S
C565        C566   1.402       .  A
C565        C570   1.401       .  A
C565        H575   1.084       .  S
C566        C567   1.407       .  A
C566        C571   1.482       .  S
C567        C568   1.402       .  A
C567        O572   1.372       .  S
C568        C569   1.407       .  A
C568        H573   1.083       .  S
C569        C570   1.414       .  A
C570        O574   1.372       .  S
C571        C576   1.407       .  A
C571        C580   1.403       .  A
O572        H588   0.992       .  S
O574        H585   0.992       .  S
C576        C577   1.400       .  A
C576        O581   1.372       .  S
C577        C578   1.406       .  A
C577        H582   1.083       .  S
C578        C579   1.411       .  A
C579        C580   1.403       .  A
C579        O583   1.372       .  S
C580        H584   1.084       .  S
O581        H586   0.992       .  S
O583        H587   0.992       .  S
C589        C590   1.403       .  A
C589        C594   1.399       .  A
C589        H599   1.084       .  S
C590        C591   1.407       .  A
C590        C595   1.477       .  S
C591        C592   1.397       .  A
C591        O596   1.372       .  S
C592        C593   1.405       .  A
C592        H597   1.084       .  S
C593        C594   1.411       .  A
C594        O598   1.372       .  S
C595        C600   1.405       .  A
C595        C604   1.402       .  A
O596        H612   0.992       .  S
O598        H609   0.992       .  S
C600        C601   1.398       .  A
C600        O605   1.372       .  S
C601        C602   1.406       .  A
C601        H606   1.083       .  S
C602        C603   1.413       .  A
C603        C604   1.400       .  A
C603        O607   1.371       .  S
C604        H608   1.084       .  S
O605        H610   0.992       .  S
O607        H611   0.992       .  S
C613        C614   1.404       .  A
C613        C618   1.398       .  A
C613        H623   1.083       .  S
C614        C615   1.410       .  A
C614        C619   1.485       .  S
C615        C616   1.401       .  A
C615        O620   1.372       .  S
C616        C617   1.405       .  A
C616        H621   1.084       .  S
C617        C618   1.410       .  A
C618        O622   1.372       .  S
C619        C624   1.409       .  A
C619        C628   1.403       .  A
O620        H636   0.992       .  S
O622        H633   0.992       .  S
C624        C625   1.401       .  A
C624        O629   1.372       .  S
C625        C626   1.405       .  A
C625        H630   1.083       .  S
C626        C627   1.413       .  A
C627        C628   1.400       .  A
C627        O631   1.372       .  S
C628        H632   1.084       .  S
O629        H634   0.992       .  S
O631        H635   0.992       .  S
C637        C638   1.400       .  A
C637        C642   1.400       .  A
C637        H647   1.084       .  S
C638        C639   1.404       .  A
C638        C643   1.475       .  S
C639        C640   1.400       .  A
C639        O644   1.372       .  S
C640        C641   1.409       .  A
C640        H645   1.083       .  S
C641        C642   1.413       .  A
C642        O646   1.371       .  S
C643        C648   1.405       .  A
C643        C652   1.402       .  A
O644        H660   0.992       .  S
O646        H657   0.992       .  S
C648        C649   1.398       .  A
C648        O653   1.371       .  S
C649        C650   1.406       .  A
C649        H654   1.084       .  S
C650        C651   1.410       .  A
C651        C652   1.401       .  A
C651        O655   1.371       .  S
C652        H656   1.084       .  S
O653        H658   0.992       .  S
O655        H659   0.992       .  S
C661        C662   1.401       .  A
C661        C666   1.397       .  A
C661        H671   1.084       .  S
C662        C663   1.406       .  A
C662        C667   1.475       .  S
C663        C664   1.399       .  A
C663        O668   1.371       .  S
C664        C665   1.404       .  A
C664        H669   1.084       .  S
C665        C666   1.411       .  A
C666        O670   1.372       .  S
C667        C672   1.404       .  A
C667        C676   1.403       .  A
O668        H684   0.992       .  S
O670        H681   0.992       .  S
C672        C673   1.397       .  A
C672        O677   1.372       .  S
C673        C674   1.405       .  A
C673        H678   1.084       .  S
C674        C675   1.411       .  A
C675        C676   1.401       .  A
C675        O679   1.372       .  S
C676        H680   1.084       .  S
O677        H682   0.992       .  S
O679        H683   0.992       .  S
C685        C686   1.402       .  A
C685        C690   1.397       .  A
C685        H695   1.083       .  S
C686        C687   1.408       .  A
C686        C691   1.476       .  S
C687        C688   1.396       .  A
C687        O692   1.372       .  S
C688        C689   1.403       .  A
C688        H693   1.084       .  S
C689        C690   1.411       .  A
C690        O694   1.372       .  S
C691        C696   1.408       .  A
C691        C700   1.403       .  A
O692        H708   0.992       .  S
O694        H705   0.992       .  S
C696        C697   1.399       .  A
C696        O701   1.372       .  S
C697        C698   1.402       .  A
C697        H702   1.084       .  S
C698        C699   1.406       .  A
C699        C700   1.396       .  A
C699        O703   1.372       .  S
C700        H704   1.084       .  S
O701        H706   0.992       .  S
O703        H707   0.992       .  S
C709        C710   1.404       .  A
C709        C714   1.401       .  A
C709        H719   1.083       .  S
C710        C711   1.409       .  A
C710        C715   1.485       .  S
C711        C712   1.399       .  A
C711        O716   1.372       .  S
C712        C713   1.406       .  A
C712        H717   1.083       .  S
C713        C714   1.412       .  A
C714        O718   1.371       .  S
C715        C720   1.411       .  A
C715        C724   1.406       .  A
O716        H732   0.992       .  S
O718        H729   0.992       .  S
C720        C721   1.400       .  A
C720        O725   1.372       .  S
C721        C722   1.402       .  A
C721        H726   1.084       .  S
C722        C723   1.406       .  A
C723        C724   1.400       .  A
C723        O727   1.372       .  S
C724        H728   1.083       .  S
O725        H730   0.992       .  S
O727        H731   0.992       .  S
