geometry optimzed in LAMMPS
_audit_creation_date              2020-12-01 
_audit_creation_method            'lammps2cif' 
_symmetry_space_group_name_H-M    'P1' 
_symmetry_Int_Tables_number       1 
_symmetry_cell_setting            triclinic 
loop_ 
_symmetry_equiv_pos_as_xyz 
  x,y,z 
_cell_length_a                    32.80159374 
_cell_length_b                    29.513389871129686 
_cell_length_c                    33.421086250883505 
_cell_angle_alpha                 90.14333729201444 
_cell_angle_beta                  89.8201863455792 
_cell_angle_gamma                 89.70421981498555 
loop_ 
_atom_site_label 
_atom_site_type_symbol 
_atom_site_fract_x 
_atom_site_fract_y 
_atom_site_fract_z 
_atom_site_charge 
O1          O  0.46529293  0.05341394  0.12919874    -0.73300
O2          O  0.53294280  0.01111097  0.21498387    -0.73300
O3          O  0.54684821  0.04790286  0.14198061    -0.73400
O4          O  0.45101909  0.01674976  0.20250949    -0.73400
O5          O  0.45172103  0.44711850  0.17628614    -0.73300
O6          O  0.54760923  0.47799559  0.11626463    -0.73300
O7          O  0.53355046  0.44133382  0.18895584    -0.73300
O8          O  0.46660493  0.48356293  0.10330544    -0.73400
Ni9        Ni  0.49892873  0.03479899  0.17324189     1.25400
Ni10       Ni  0.49983595  0.46007399  0.14527308     1.25400
C11         C  0.45520611  0.52502639  0.10202399     0.88900
C12         C  0.54492470  0.96970212  0.21555478     0.88800
C13         C  0.56274580  0.01779411  0.11902997     0.88900
C14         C  0.43573740  0.47697657  0.19942822     0.89000
C15         C  0.37383435  0.01781483  0.01632125     0.87600
C16         C  0.39152476  0.48605292  0.31817688    -0.52600
C17         C  0.36331425  0.46806087  0.29285693     0.10600
C18         C  0.31853794  0.48061566  0.30447169     0.21500
C19         C  0.34838218  0.05202585  0.99318089    -0.53300
C20         C  0.31909810  0.03316204  0.30291921     0.10700
C21         C  0.34359238  0.48969436  0.03936002    -0.52900
C22         C  0.31462406  0.46875340  0.01678338     0.11200
H23         H  0.42416563  0.48412669  0.31239132     0.15700
H24         H  0.29515680  0.46449006  0.28525154     0.01500
H25         H  0.35371588  0.08785002  0.99450973     0.16100
H26         H  0.34612545  0.48550974  0.07158701     0.15800
C27         C  0.63019199  0.47377664  0.29855576     0.87600
C28         C  0.65500506  0.01054828  0.27885038    -0.52600
C29         C  0.68201110  0.03144587  0.30346522     0.10600
C30         C  0.68091287  0.01314763  0.01399836     0.21500
C31         C  0.66176595  0.44113007  0.31665338    -0.53300
C32         C  0.68791975  0.46143575  0.00991855     0.10700
C33         C  0.60948946  0.99650373  0.33418215    -0.52900
C34         C  0.63561619  0.01672462  0.02673067     0.11200
H35         H  0.65160570  0.01906891  0.24738767     0.15700
H36         H  0.70227528  0.03001599  0.03493493     0.01500
H37         H  0.66196741  0.40518083  0.31063606     0.16100
H38         H  0.57689836  0.99410516  0.00658354     0.15800
O39         O  0.45251510  0.29828385  0.18426432    -0.73300
O40         O  0.55027826  0.26637614  0.12672563    -0.73300
O41         O  0.46930578  0.26231864  0.11121208    -0.73400
O42         O  0.53354053  0.30253835  0.19980399    -0.73400
O43         O  0.53149864  0.23251387  0.22490552    -0.73300
O44         O  0.46725724  0.19226152  0.13625348    -0.73300
O45         O  0.54841453  0.19637117  0.15180638    -0.73300
O46         O  0.45068271  0.22824014  0.20925745    -0.73400
Ni47       Ni  0.50152220  0.28484792  0.15451244     1.25400
Ni48       Ni  0.49942720  0.20986034  0.18149535     1.25400
C49         C  0.43578782  0.26833710  0.20649227     0.88900
C50         C  0.56515148  0.22626524  0.12956611     0.88800
C51         C  0.45743912  0.22110904  0.10943405     0.88900
C52         C  0.54285849  0.27390120  0.22696081     0.89000
C53         C  0.37368950  0.22696892  0.02495444     0.87600
C54         C  0.34520390  0.25857502  0.04707571    -0.52600
C55         C  0.31635885  0.27882058  0.02397002     0.10600
C56         C  0.31902259  0.26403294  0.31208781     0.21500
C57         C  0.34598409  0.19260410  0.00436834    -0.53300
C58         C  0.31764880  0.21148646  0.31262559     0.10700
C59         C  0.39185368  0.25511314  0.99136030    -0.52900
C60         C  0.36380662  0.27359901  0.29952095     0.11200
H61         H  0.34832479  0.26508748  0.07896773     0.15700
H62         H  0.29597972  0.28014744  0.29236152     0.01500
H63         H  0.34904699  0.15677533  0.00898360     0.16100
H64         H  0.42444238  0.25561458  0.98516530     0.15800
C65         C  0.62409363  0.27095398  0.31373730     0.87600
C66         C  0.60760779  0.23862434  0.01180735    -0.52600
C67         C  0.63660064  0.22105816  0.03657641     0.10600
C68         C  0.68070121  0.23500609  0.02502135     0.21500
C69         C  0.64856047  0.30598230  0.33724656    -0.53300
C70         C  0.67867496  0.28751457  0.02719573     0.10700
C71         C  0.65513182  0.24371408  0.29035592    -0.52900
C72         C  0.68449696  0.22334180  0.31280235     0.11200
H73         H  0.57509966  0.23551487  0.01773902     0.15700
H74         H  0.70462085  0.21929804  0.04398626     0.01500
H75         H  0.64176029  0.34179879  0.33665817     0.16100
H76         H  0.65252077  0.23903862  0.25816717     0.15800
O77         O  0.95446227  0.22804846  0.03325453    -0.73300
O78         O  0.04032927  0.26259629  0.29454047    -0.73300
O79         O  0.03768158  0.22407339  0.03454837    -0.73400
O80         O  0.95779140  0.26634001  0.29331192    -0.73400
O81         O  0.95912584  0.33559266  0.32037764    -0.73300
O82         O  0.03945324  0.29328337  0.06161401    -0.73300
O83         O  0.04211006  0.33187511  0.32144489    -0.73300
O84         O  0.95632508  0.29716975  0.06042773    -0.73400
Ni85       Ni  0.99752377  0.24282401  0.99625119     1.25400
Ni86       Ni  0.99934110  0.31692329  0.02537896     1.25400
C87         C  0.94097515  0.25736583  0.05838072     0.88900
C88         C  0.05521514  0.30261980  0.29608596     0.88800
C89         C  0.05207457  0.25214833  0.05998273     0.88900
C90         C  0.94509967  0.30739384  0.29483891     0.89000
C91         C  0.13711063  0.28982589  0.21030729     0.87600
C92         C  0.16331759  0.25228021  0.22685855    -0.52600
C93         C  0.18437279  0.22793851  0.19887606     0.10600
C94         C  0.17644415  0.24443475  0.15496759     0.21500
C95         C  0.16664546  0.31891031  0.18569584    -0.53300
C96         C  0.18614232  0.29576236  0.15530109     0.10700
C97         C  0.10942116  0.26711123  0.17983854    -0.52900
C98         C  0.12950786  0.24388048  0.15060515     0.11200
H99         H  0.16492251  0.24538811  0.25878176     0.15700
H100        H  0.19288066  0.22489498  0.13144690     0.01500
H101        H  0.17221231  0.35411483  0.19222022     0.16100
H102        H  0.07656419  0.27237480  0.17945368     0.15800
C103        C  0.86130786  0.29518224  0.21324014     0.87600
C104        C  0.88670248  0.27630703  0.17877786    -0.52600
C105        C  0.86499058  0.25281375  0.15119975     0.10600
C106        C  0.81895065  0.24917390  0.16140561     0.21500
C107        C  0.82745776  0.32321311  0.19340542    -0.53300
C108        C  0.80535787  0.29927439  0.16569307     0.10700
C109        C  0.84012374  0.25451991  0.23129247    -0.52900
C110        C  0.81749162  0.23003959  0.20497921     0.11200
H111        H  0.91896679  0.28363333  0.17506263     0.15700
H112        H  0.80103922  0.22969333  0.13913882     0.01500
H113        H  0.82378188  0.35945756  0.19807253     0.16100
H114        H  0.84225676  0.24634683  0.26293036     0.15800
O115        O  0.96767323  0.48774321  0.05440488    -0.73300
O116        O  0.03239113  0.44633484  0.29918090    -0.73300
O117        O  0.04875970  0.48197418  0.03899774    -0.73400
O118        O  0.95102743  0.45209932  0.31455831    -0.73400
O119        O  0.94978190  0.02224960  0.28977796    -0.73300
O120        O  0.04753283  0.05197233  0.01385563    -0.73300
O121        O  0.03073582  0.01646545  0.27423091    -0.73300
O122        O  0.96643346  0.05787151  0.02941404    -0.73400
Ni123      Ni  0.00000889  0.46452577  0.34443502     1.25400
Ni124      Ni  0.99857453  0.03958655  0.31754728     1.25400
C125        C  0.95631031  0.52927196  0.05624408     0.88900
C126        C  0.04226487  0.47503480  0.27227506     0.88800
C127        C  0.06398620  0.52177019  0.03608021     0.88900
C128        C  0.93458973  0.48242785  0.29237934     0.89000
C129        C  0.12483059  0.48151719  0.18668627     0.87600
C130        C  0.10717860  0.51134077  0.15404049    -0.52600
C131        C  0.13560837  0.02942859  0.12896406     0.10600
C132        C  0.18030268  0.01865188  0.14147547     0.21500
C133        C  0.15163884  0.44712832  0.16459665    -0.53300
C134        C  0.18137254  0.46619860  0.14132419     0.10700
C135        C  0.15377450  0.01166589  0.20946696    -0.52900
C136        C  0.18271800  0.03232315  0.18664935     0.11200
H137        H  0.07465369  0.51233996  0.14773253     0.15700
H138        H  0.20368014  0.03477120  0.12216724     0.01500
H139        H  0.14556311  0.41132224  0.16493660     0.16100
H140        H  0.15055213  0.01725123  0.24150693     0.15800
C141        C  0.87257013  0.02547865  0.14069245     0.87600
C142        C  0.84376951  0.49451732  0.11845639    -0.52600
C143        C  0.81474416  0.47473215  0.14161405     0.10600
C144        C  0.81776128  0.48894998  0.18687540     0.21500
C145        C  0.84537775  0.06044139  0.16186523    -0.53300
C146        C  0.81682247  0.04143490  0.18658156     0.10700
C147        C  0.89059768  0.99659698  0.17392632    -0.52900
C148        C  0.86251475  0.47843658  0.19921800     0.11200
H149        H  0.84671952  0.48812025  0.08650831     0.15700
H150        H  0.79458399  0.47318783  0.20665367     0.01500
H151        H  0.84921480  0.09680869  0.15877784     0.16100
H152        H  0.92317914  0.99556582  0.17995246     0.15800
O153        O  0.74119855  0.07950882  0.30380424    -0.73300
O154        O  0.80431272  0.17316968  0.25369404    -0.73300
O155        O  0.74263709  0.17144700  0.30909933    -0.73400
O156        O  0.80293868  0.08124010  0.24775760    -0.73400
O157        O  0.75814247  0.08661882  0.19785543    -0.73300
O158        O  0.70024659  0.17640672  0.25740594    -0.73300
O159        O  0.76121242  0.17790179  0.20244291    -0.73300
O160        O  0.69741201  0.08551854  0.25322716    -0.73400
Ni161      Ni  0.77455851  0.12604841  0.28033441     1.25400
Ni162      Ni  0.72761590  0.13167024  0.22615061     1.25400
C163        C  0.70821537  0.06752113  0.28656064     0.88900
C164        C  0.79337100  0.19126363  0.22041345     0.88800
C165        C  0.71093283  0.18879636  0.29264640     0.88900
C166        C  0.79085511  0.07011029  0.21249169     0.89000
O167        O  0.75227514  0.43083007  0.13657157    -0.73300
O168        O  0.69023223  0.33709742  0.08292432    -0.73300
O169        O  0.74618324  0.34069965  0.14512491    -0.73400
O170        O  0.69640573  0.42777631  0.07432145    -0.73400
O171        O  0.74497124  0.41489588  0.02879915    -0.73300
O172        O  0.79671004  0.33097567  0.10102802    -0.73300
O173        O  0.74140518  0.32475554  0.04008000    -0.73300
O174        O  0.80052544  0.42101603  0.09029331    -0.73400
Ni175      Ni  0.71935975  0.38434739  0.11127590     1.25400
Ni176      Ni  0.77269708  0.37259436  0.06359403     1.25400
C177        C  0.78752013  0.44050719  0.12237588     0.88900
C178        C  0.70510962  0.31673414  0.05204913     0.88800
C179        C  0.78085551  0.32360284  0.13547615     0.88900
C180        C  0.71145255  0.43412163  0.03927551     0.89000
O181        O  0.30394796  0.07933411  0.24598320    -0.73300
O182        O  0.24123934  0.17490836  0.19523443    -0.73300
O183        O  0.30316530  0.17159195  0.25122746    -0.73400
O184        O  0.24180790  0.08230076  0.19032430    -0.73400
O185        O  0.19781704  0.08048010  0.24113094    -0.73300
O186        O  0.25862121  0.16659071  0.30154294    -0.73300
O187        O  0.19801056  0.17114997  0.24663986    -0.73300
O188        O  0.25829769  0.07553141  0.29548555    -0.73400
Ni189      Ni  0.27426742  0.12713525  0.21876253     1.25400
Ni190      Ni  0.22656396  0.12333314  0.27266038     1.25400
C191        C  0.29180140  0.06267067  0.27945554     0.88900
C192        C  0.20907468  0.18895641  0.21338861     0.88800
C193        C  0.29144499  0.18272732  0.28678174     0.88900
C194        C  0.20912665  0.06680859  0.20637877     0.89000
O195        O  0.24584140  0.33544824  0.13652176    -0.73300
O196        O  0.30104518  0.42163892  0.07202049    -0.73300
O197        O  0.24338315  0.42568314  0.13041206    -0.73400
O198        O  0.30252742  0.33121935  0.07646348    -0.73400
O199        O  0.25582289  0.32656979  0.02847008    -0.73300
O200        O  0.19539979  0.42113734  0.08343464    -0.73300
O201        O  0.25473295  0.41884626  0.02366476    -0.73300
O202        O  0.19758809  0.32963359  0.09000141    -0.73400
Ni203      Ni  0.27492645  0.37856732  0.10515041     1.25400
Ni204      Ni  0.22403281  0.37379074  0.05458872     1.25400
C205        C  0.21151842  0.32009566  0.12516427     0.88900
C206        C  0.28827915  0.43466498  0.03774504     0.88800
C207        C  0.20860405  0.43750314  0.11654184     0.88900
C208        C  0.28994316  0.31397636  0.04338226     0.89000
C209        C  0.09876310  0.53305403  0.06044238    -0.12100
C210        C  0.12188041  0.03668321  0.08840066    -0.13700
C211        C  0.06844559  0.46201328  0.23981919    -0.12100
C212        C  0.09346233  0.46328182  0.21340297    -0.13700
C213        C  0.87667024  0.46938809  0.23950822    -0.12100
C214        C  0.89986087  0.47154905  0.26762350    -0.13700
C215        C  0.92979938  0.04277034  0.08819452    -0.12100
C216        C  0.90409648  0.04285175  0.11392164    -0.13700
C217        C  0.10767195  0.23438370  0.11420852    -0.12100
C218        C  0.08320146  0.23791380  0.08749125    -0.13700
C219        C  0.08733501  0.31389215  0.26837411    -0.12100
C220        C  0.11277453  0.31154658  0.24216865    -0.13700
C221        C  0.91358315  0.32057404  0.26757665    -0.12100
C222        C  0.88720041  0.31782586  0.24270969    -0.13700
C223        C  0.90832224  0.24583779  0.08557284    -0.12100
C224        C  0.88421213  0.24343748  0.11299537    -0.13700
C225        C  0.40104503  0.27998942  0.23110224    -0.12100
C226        C  0.37786069  0.28261183  0.25926007    -0.13700
C227        C  0.43071024  0.20841793  0.07754013    -0.12100
C228        C  0.40508980  0.20912151  0.05181080    -0.13700
C229        C  0.56787935  0.28732193  0.25998077    -0.12100
C230        C  0.59220554  0.28777011  0.28691308    -0.13700
C231        C  0.62290883  0.21176375  0.07683532    -0.12100
C232        C  0.59986051  0.21447418  0.10504554    -0.13700
C233        C  0.40480934  0.03648097  0.04306093    -0.12100
C234        C  0.42926901  0.03834789  0.06975773    -0.13700
C235        C  0.37796351  0.46129107  0.25232396    -0.12100
C236        C  0.40129277  0.46535712  0.22439639    -0.13700
C237        C  0.60003612  0.45551346  0.27058900    -0.12100
C238        C  0.57350505  0.45601182  0.24568872    -0.13700
C239        C  0.62035825  0.02892436  0.06586654    -0.12100
C240        C  0.59706226  0.02858208  0.09392286    -0.13700
O241        O  0.46529283  0.05341398  0.46253212    -0.73300
O242        O  0.53294276  0.01111100  0.54831718    -0.73300
O243        O  0.54684813  0.04790291  0.47531392    -0.73400
O244        O  0.45101903  0.01674979  0.53584281    -0.73400
O245        O  0.45172110  0.44711849  0.50961957    -0.73300
O246        O  0.54760927  0.47799551  0.44959800    -0.73300
O247        O  0.53355059  0.44133390  0.52228920    -0.73300
O248        O  0.46660489  0.48356284  0.43663881    -0.73400
Ni249      Ni  0.49892866  0.03479903  0.50657522     1.25400
Ni250      Ni  0.49983599  0.46007397  0.47860646     1.25400
C251        C  0.45520607  0.52502630  0.43535730     0.88900
C252        C  0.54492468  0.96970216  0.54888804     0.88800
C253        C  0.56274575  0.01779417  0.45236329     0.88900
C254        C  0.43573744  0.47697659  0.53276160     0.89000
C255        C  0.37383437  0.01781483  0.34965459     0.87600
C256        C  0.39152489  0.48605305  0.65151019    -0.52600
C257        C  0.36331436  0.46806095  0.62619031     0.10600
C258        C  0.31853804  0.48061568  0.63780510     0.21500
C259        C  0.34838227  0.05202585  0.32651418    -0.53300
C260        C  0.31909810  0.03316206  0.63625256     0.10700
C261        C  0.34359234  0.48969418  0.37269334    -0.52900
C262        C  0.31462395  0.46875334  0.35011669     0.11200
H263        H  0.42416576  0.48412690  0.64572457     0.15700
H264        H  0.29515691  0.46449007  0.61858496     0.01500
H265        H  0.35371602  0.08785002  0.32784297     0.16100
H266        H  0.34612547  0.48550947  0.40492032     0.15800
C267        C  0.63019200  0.47377683  0.63188923     0.87600
C268        C  0.65500504  0.01054837  0.61218367    -0.52600
C269        C  0.68201106  0.03144592  0.63679853     0.10600
C270        C  0.68091290  0.01314765  0.34733174     0.21500
C271        C  0.66176595  0.44113021  0.64998683    -0.53300
C272        C  0.68791967  0.46143561  0.34325183     0.10700
C273        C  0.60948944  0.99650355  0.66751540    -0.52900
C274        C  0.63561621  0.01672479  0.36006405     0.11200
H275        H  0.65160570  0.01906903  0.58072095     0.15700
H276        H  0.70227539  0.03001594  0.36826828     0.01500
H277        H  0.66196748  0.40518097  0.64396952     0.16100
H278        H  0.57689833  0.99410556  0.33991689     0.15800
O279        O  0.45251521  0.29828409  0.51759760    -0.73300
O280        O  0.55027836  0.26637624  0.46005892    -0.73300
O281        O  0.46930583  0.26231876  0.44454537    -0.73400
O282        O  0.53354059  0.30253851  0.53313728    -0.73400
O283        O  0.53149870  0.23251408  0.55823888    -0.73300
O284        O  0.46725735  0.19226168  0.46958684    -0.73300
O285        O  0.54841465  0.19637131  0.48513976    -0.73300
O286        O  0.45068278  0.22824041  0.54259076    -0.73400
Ni287      Ni  0.50152229  0.28484806  0.48784572     1.25400
Ni288      Ni  0.49942729  0.20986054  0.51482870     1.25400
C289        C  0.43578790  0.26833737  0.53982557     0.88900
C290        C  0.56515159  0.22626535  0.46289944     0.88800
C291        C  0.45743916  0.22110915  0.44276740     0.88900
C292        C  0.54285850  0.27390141  0.56029415     0.89000
C293        C  0.37368949  0.22696896  0.35828778     0.87600
C294        C  0.34520384  0.25857500  0.38040907    -0.52600
C295        C  0.31635877  0.27882055  0.35730340     0.10600
C296        C  0.31902262  0.26403297  0.64542111     0.21500
C297        C  0.34598411  0.19260410  0.33770165    -0.53300
C298        C  0.31764883  0.21148648  0.64595892     0.10700
C299        C  0.39185361  0.25511326  0.32469367    -0.52900
C300        C  0.36380664  0.27359902  0.63285420     0.11200
H301        H  0.34832477  0.26508748  0.41230110     0.15700
H302        H  0.29597973  0.28014743  0.62569483     0.01500
H303        H  0.34904706  0.15677533  0.34231689     0.16100
H304        H  0.42444232  0.25561484  0.31849869     0.15800
C305        C  0.62409353  0.27095405  0.64707071     0.87600
C306        C  0.60760790  0.23862434  0.34514057    -0.52600
C307        C  0.63660071  0.22105813  0.36990967     0.10600
C308        C  0.68070127  0.23500605  0.35835466     0.21500
C309        C  0.64856036  0.30598238  0.67058002    -0.53300
C310        C  0.67867501  0.28751452  0.36052906     0.10700
C311        C  0.65513174  0.24371421  0.62368928    -0.52900
C312        C  0.68449694  0.22334195  0.64613565     0.11200
H313        H  0.57509976  0.23551492  0.35107223     0.15700
H314        H  0.70462088  0.21929796  0.37731958     0.01500
H315        H  0.64176020  0.34179888  0.66999166     0.16100
H316        H  0.65252059  0.23903870  0.59150054     0.15800
O317        O  0.95446233  0.22804846  0.36658778    -0.73300
O318        O  0.04032925  0.26259632  0.62787398    -0.73300
O319        O  0.03768171  0.22407333  0.36788164    -0.73400
O320        O  0.95779140  0.26634002  0.62664527    -0.73400
O321        O  0.95912584  0.33559269  0.65371095    -0.73300
O322        O  0.03945329  0.29328327  0.39494737    -0.73300
O323        O  0.04211003  0.33187517  0.65477835    -0.73300
O324        O  0.95632517  0.29716968  0.39376109    -0.73400
Ni325      Ni  0.99752387  0.24282396  0.32958444     1.25400
Ni326      Ni  0.99934120  0.31692319  0.35871228     1.25400
C327        C  0.94097521  0.25736576  0.39171403     0.88900
C328        C  0.05521513  0.30261983  0.62941946     0.88800
C329        C  0.05207466  0.25214825  0.39331607     0.88900
C330        C  0.94509969  0.30739386  0.62817220     0.89000
C331        C  0.13711060  0.28982591  0.54364069     0.87600
C332        C  0.16331756  0.25228023  0.56019193    -0.52600
C333        C  0.18437278  0.22793853  0.53220941     0.10600
C334        C  0.17644417  0.24443481  0.48830098     0.21500
C335        C  0.16664543  0.31891036  0.51902931    -0.53300
C336        C  0.18614234  0.29576242  0.48863456     0.10700
C337        C  0.10942116  0.26711127  0.51317192    -0.52900
C338        C  0.12950789  0.24388051  0.48393854     0.11200
H339        H  0.16492249  0.24538811  0.59211512     0.15700
H340        H  0.19288071  0.22489509  0.46478026     0.01500
H341        H  0.17221226  0.35411487  0.52555373     0.16100
H342        H  0.07656420  0.27237482  0.51278702     0.15800
C343        C  0.86130792  0.29518225  0.54657338     0.87600
C344        C  0.88670251  0.27630707  0.51211108    -0.52600
C345        C  0.86499058  0.25281379  0.48453299     0.10600
C346        C  0.81895066  0.24917388  0.49473891     0.21500
C347        C  0.82745778  0.32321310  0.52673869    -0.53300
C348        C  0.80535784  0.29927437  0.49902637     0.10700
C349        C  0.84012388  0.25451988  0.56462574    -0.52900
C350        C  0.81749173  0.23003955  0.53831251     0.11200
H351        H  0.91896682  0.28363335  0.50839584     0.15700
H352        H  0.80103920  0.22969328  0.47247217     0.01500
H353        H  0.82378194  0.35945757  0.53140574     0.16100
H354        H  0.84225696  0.24634680  0.59626363     0.15800
O355        O  0.96767323  0.48774314  0.38773816    -0.73300
O356        O  0.03239093  0.44633481  0.63251419    -0.73300
O357        O  0.04875981  0.48197419  0.37233105    -0.73400
O358        O  0.95102731  0.45209937  0.64789167    -0.73400
O359        O  0.94978188  0.02224967  0.62311141    -0.73300
O360        O  0.04753277  0.05197244  0.34718903    -0.73300
O361        O  0.03073590  0.01646549  0.60756439    -0.73300
O362        O  0.96643343  0.05787155  0.36274748    -0.73400
Ni363      Ni  0.00000878  0.46452577  0.67776836     1.25400
Ni364      Ni  0.99857451  0.03958665  0.65088067     1.25400
C365        C  0.95631028  0.52927188  0.38957739     0.88900
C366        C  0.04226475  0.47503480  0.60560840     0.88800
C367        C  0.06398627  0.52177022  0.36941354     0.88900
C368        C  0.93458967  0.48242788  0.62571264     0.89000
C369        C  0.12483051  0.48151722  0.52001963     0.87600
C370        C  0.10717855  0.51134076  0.48737380    -0.52600
C371        C  0.13560839  0.02942853  0.46229742     0.10600
C372        C  0.18030272  0.01865189  0.47480884     0.21500
C373        C  0.15163882  0.44712835  0.49793008    -0.53300
C374        C  0.18137253  0.46619862  0.47465762     0.10700
C375        C  0.15377453  0.01166595  0.54280033    -0.52900
C376        C  0.18271800  0.03232323  0.51998272     0.11200
H377        H  0.07465365  0.51233996  0.48106579     0.15700
H378        H  0.20368016  0.03477124  0.45550060     0.01500
H379        H  0.14556309  0.41132226  0.49827006     0.16100
H380        H  0.15055220  0.01725124  0.57484032     0.15800
C381        C  0.87257007  0.02547867  0.47402581     0.87600
C382        C  0.84376946  0.49451737  0.45178969    -0.52600
C383        C  0.81474410  0.47473222  0.47494733     0.10600
C384        C  0.81776124  0.48895003  0.52020870     0.21500
C385        C  0.84537767  0.06044142  0.49519856    -0.53300
C386        C  0.81682238  0.04143493  0.51991486     0.10700
C387        C  0.89059757  0.99659696  0.50725967    -0.52900
C388        C  0.86251470  0.47843655  0.53255129     0.11200
H389        H  0.84671947  0.48812031  0.41984161     0.15700
H390        H  0.79458395  0.47318792  0.53998696     0.01500
H391        H  0.84921473  0.09680872  0.49211118     0.16100
H392        H  0.92317902  0.99556580  0.51328585     0.15800
O393        O  0.74119857  0.07950882  0.63713757    -0.73300
O394        O  0.80431276  0.17316969  0.58702738    -0.73300
O395        O  0.74263703  0.17144705  0.64243263    -0.73400
O396        O  0.80293864  0.08124013  0.58109089    -0.73400
O397        O  0.75814243  0.08661888  0.53118873    -0.73300
O398        O  0.70024655  0.17640680  0.59073924    -0.73300
O399        O  0.76121246  0.17790185  0.53577627    -0.73300
O400        O  0.69741202  0.08551860  0.58656050    -0.73400
Ni401      Ni  0.77455849  0.12604843  0.61366773     1.25400
Ni402      Ni  0.72761590  0.13167031  0.55948394     1.25400
C403        C  0.70821537  0.06752117  0.61989397     0.88900
C404        C  0.79337107  0.19126364  0.55374680     0.88800
C405        C  0.71093279  0.18879645  0.62597971     0.88900
C406        C  0.79085505  0.07011032  0.54582498     0.89000
O407        O  0.75227508  0.43083010  0.46990483    -0.73300
O408        O  0.69023213  0.33709740  0.41625768    -0.73300
O409        O  0.74618320  0.34069966  0.47845822    -0.73400
O410        O  0.69640562  0.42777617  0.40765470    -0.73400
O411        O  0.74497119  0.41489583  0.36213243    -0.73300
O412        O  0.79671001  0.33097570  0.43436134    -0.73300
O413        O  0.74140513  0.32475550  0.37341343    -0.73300
O414        O  0.80052539  0.42101608  0.42362658    -0.73400
Ni415      Ni  0.71935968  0.38434737  0.44460921     1.25400
Ni416      Ni  0.77269703  0.37259436  0.39692736     1.25400
C417        C  0.78752007  0.44050724  0.45570916     0.88900
C418        C  0.70510957  0.31673410  0.38538253     0.88800
C419        C  0.78085546  0.32360283  0.46880946     0.88900
C420        C  0.71145246  0.43412151  0.37260877     0.89000
O421        O  0.30394795  0.07933410  0.57931649    -0.73300
O422        O  0.24123930  0.17490838  0.52856775    -0.73300
O423        O  0.30316527  0.17159195  0.58456084    -0.73400
O424        O  0.24180788  0.08230082  0.52365766    -0.73400
O425        O  0.19781708  0.08048008  0.57446436    -0.73300
O426        O  0.25862120  0.16659076  0.63487634    -0.73300
O427        O  0.19801053  0.17114996  0.57997318    -0.73300
O428        O  0.25829775  0.07553150  0.62881889    -0.73400
Ni429      Ni  0.27426739  0.12713528  0.55209587     1.25400
Ni430      Ni  0.22656396  0.12333318  0.60599375     1.25400
C431        C  0.29180142  0.06267070  0.61278885     0.88900
C432        C  0.20907463  0.18895641  0.54672194     0.88800
C433        C  0.29144498  0.18272733  0.62011514     0.88900
C434        C  0.20912665  0.06680862  0.53971216     0.89000
O435        O  0.24584140  0.33544828  0.46985516    -0.73300
O436        O  0.30104510  0.42163890  0.40535379    -0.73300
O437        O  0.24338315  0.42568318  0.46374539    -0.73400
O438        O  0.30252737  0.33121936  0.40979683    -0.73400
O439        O  0.25582280  0.32656979  0.36180348    -0.73300
O440        O  0.19539974  0.42113741  0.41676803    -0.73300
O441        O  0.25473283  0.41884624  0.35699810    -0.73300
O442        O  0.19758800  0.32963366  0.42333489    -0.73400
Ni443      Ni  0.27492641  0.37856734  0.43848374     1.25400
Ni444      Ni  0.22403272  0.37379076  0.38792213     1.25400
C445        C  0.21151839  0.32009573  0.45849774     0.88900
C446        C  0.28827904  0.43466495  0.37107835     0.88800
C447        C  0.20860402  0.43750318  0.44987522     0.88900
C448        C  0.28994308  0.31397637  0.37671562     0.89000
C449        C  0.09876315  0.53305410  0.39377572    -0.12100
C450        C  0.12188039  0.03668323  0.42173403    -0.13700
C451        C  0.06844548  0.46201330  0.57315252    -0.12100
C452        C  0.09346221  0.46328186  0.54673630    -0.13700
C453        C  0.87667017  0.46938809  0.57284152    -0.12100
C454        C  0.89986081  0.47154907  0.60095678    -0.13700
C455        C  0.92979937  0.04277033  0.42152798    -0.12100
C456        C  0.90409647  0.04285178  0.44725510    -0.13700
C457        C  0.10767198  0.23438370  0.44754194    -0.12100
C458        C  0.08320153  0.23791376  0.42082463    -0.13700
C459        C  0.08733498  0.31389215  0.60170758    -0.12100
C460        C  0.11277444  0.31154657  0.57550207    -0.13700
C461        C  0.91358322  0.32057407  0.60090990    -0.12100
C462        C  0.88720050  0.31782589  0.57604292    -0.13700
C463        C  0.90832230  0.24583765  0.41890616    -0.12100
C464        C  0.88421213  0.24343741  0.44632864    -0.13700
C465        C  0.40104507  0.27998970  0.56443549    -0.12100
C466        C  0.37786069  0.28261194  0.59259332    -0.13700
C467        C  0.43071028  0.20841795  0.41087347    -0.12100
C468        C  0.40508985  0.20912155  0.38514410    -0.13700
C469        C  0.56787929  0.28732216  0.59331415    -0.12100
C470        C  0.59220542  0.28777022  0.62024653    -0.13700
C471        C  0.62290887  0.21176378  0.41016859    -0.12100
C472        C  0.59986058  0.21447428  0.43837883    -0.13700
C473        C  0.40480930  0.03648100  0.37639432    -0.12100
C474        C  0.42926896  0.03834797  0.40309112    -0.13700
C475        C  0.37796360  0.46129106  0.58565736    -0.12100
C476        C  0.40129288  0.46535709  0.55772984    -0.13700
C477        C  0.60003609  0.45551373  0.60392249    -0.12100
C478        C  0.57350507  0.45601206  0.57902215    -0.13700
C479        C  0.62035825  0.02892459  0.39919991    -0.12100
C480        C  0.59706225  0.02858218  0.42725622    -0.13700
O481        O  0.46529278  0.05341375  0.79586547    -0.73300
O482        O  0.53294276  0.01111096  0.88165049    -0.73300
O483        O  0.54684803  0.04790284  0.80864721    -0.73400
O484        O  0.45101903  0.01674949  0.86917618    -0.73400
O485        O  0.45172106  0.44711855  0.84295283    -0.73300
O486        O  0.54760928  0.47799562  0.78293135    -0.73300
O487        O  0.53355054  0.44133393  0.85562256    -0.73300
O488        O  0.46660488  0.48356287  0.76997212    -0.73400
Ni489      Ni  0.49892861  0.03479886  0.83990854     1.25400
Ni490      Ni  0.49983598  0.46007403  0.81193977     1.25400
C491        C  0.45520609  0.52502633  0.76869062     0.88900
C492        C  0.54492476  0.96970215  0.88222136     0.88800
C493        C  0.56274568  0.01779410  0.78569662     0.88900
C494        C  0.43573750  0.47697661  0.86609495     0.89000
C495        C  0.37383438  0.01781486  0.68298794     0.87600
C496        C  0.39152488  0.48605318  0.98484360    -0.52600
C497        C  0.36331442  0.46806098  0.95952368     0.10600
C498        C  0.31853808  0.48061567  0.97113839     0.21500
C499        C  0.34838220  0.05202588  0.65984760    -0.53300
C500        C  0.31909806  0.03316205  0.96958588     0.10700
C501        C  0.34359251  0.48969417  0.70602670    -0.52900
C502        C  0.31462408  0.46875334  0.68345008     0.11200
H503        H  0.42416576  0.48412709  0.97905805     0.15700
H504        H  0.29515699  0.46448998  0.95191824     0.01500
H505        H  0.35371583  0.08785005  0.66117648     0.16100
H506        H  0.34612569  0.48550949  0.73825367     0.15800
C507        C  0.63019203  0.47377677  0.96522250     0.87600
C508        C  0.65500504  0.01054831  0.94551701    -0.52600
C509        C  0.68201106  0.03144592  0.97013185     0.10600
C510        C  0.68091285  0.01314764  0.68066502     0.21500
C511        C  0.66176603  0.44113020  0.98332012    -0.53300
C512        C  0.68791964  0.46143572  0.67658532     0.10700
C513        C  0.60948948  0.99650351  0.00084876    -0.52900
C514        C  0.63561615  0.01672466  0.69339732     0.11200
H515        H  0.65160566  0.01906892  0.91405429     0.15700
H516        H  0.70227531  0.03001594  0.70160157     0.01500
H517        H  0.66196752  0.40518095  0.97730284     0.16100
H518        H  0.57689832  0.99410519  0.67325019     0.15800
O519        O  0.45251517  0.29828392  0.85093092    -0.73300
O520        O  0.55027835  0.26637618  0.79339228    -0.73300
O521        O  0.46930581  0.26231872  0.77787868    -0.73400
O522        O  0.53354054  0.30253833  0.86647068    -0.73400
O523        O  0.53149867  0.23251383  0.89157219    -0.73300
O524        O  0.46725740  0.19226155  0.80291998    -0.73300
O525        O  0.54841466  0.19637120  0.81847300    -0.73300
O526        O  0.45068274  0.22824017  0.87592395    -0.73400
Ni527      Ni  0.50152226  0.28484795  0.82117907     1.25400
Ni528      Ni  0.49942728  0.20986035  0.84816193     1.25400
C529        C  0.43578786  0.26833714  0.87315881     0.88900
C530        C  0.56515159  0.22626529  0.79623274     0.88800
C531        C  0.45743919  0.22110910  0.77610062     0.88900
C532        C  0.54285851  0.27390116  0.89362749     0.89000
C533        C  0.37368954  0.22696900  0.69162104     0.87600
C534        C  0.34520388  0.25857502  0.71374235    -0.52600
C535        C  0.31635883  0.27882061  0.69063670     0.10600
C536        C  0.31902266  0.26403294  0.97875446     0.21500
C537        C  0.34598419  0.19260414  0.67103491    -0.53300
C538        C  0.31764878  0.21148647  0.97929229     0.10700
C539        C  0.39185365  0.25511331  0.65802693    -0.52900
C540        C  0.36380671  0.27359890  0.96618755     0.11200
H541        H  0.34832478  0.26508742  0.74563439     0.15700
H542        H  0.29597980  0.28014746  0.95902817     0.01500
H543        H  0.34904721  0.15677537  0.67565009     0.16100
H544        H  0.42444235  0.25561489  0.65183195     0.15800
C545        C  0.62409350  0.27095400  0.98040408     0.87600
C546        C  0.60760787  0.23862433  0.67847397    -0.52600
C547        C  0.63660074  0.22105816  0.70324302     0.10600
C548        C  0.68070127  0.23500615  0.69168799     0.21500
C549        C  0.64856035  0.30598234  0.00391331    -0.53300
C550        C  0.67867495  0.28751460  0.69386245     0.10700
C551        C  0.65513169  0.24371409  0.95702267    -0.52900
C552        C  0.68449688  0.22334182  0.97946905     0.11200
H553        H  0.57509975  0.23551481  0.68440567     0.15700
H554        H  0.70462091  0.21929810  0.71065290     0.01500
H555        H  0.64176018  0.34179884  0.00332490     0.16100
H556        H  0.65252059  0.23903864  0.92483392     0.15800
O557        O  0.95446226  0.22804848  0.69992116    -0.73300
O558        O  0.04032917  0.26259637  0.96120729    -0.73300
O559        O  0.03768164  0.22407333  0.70121505    -0.73400
O560        O  0.95779133  0.26634006  0.95997863    -0.73400
O561        O  0.95912576  0.33559274  0.98704430    -0.73300
O562        O  0.03945321  0.29328329  0.72828072    -0.73300
O563        O  0.04210996  0.33187523  0.98811164    -0.73300
O564        O  0.95632508  0.29716971  0.72709443    -0.73400
Ni565      Ni  0.99752382  0.24282397  0.66291785     1.25400
Ni566      Ni  0.99934113  0.31692322  0.69204565     1.25400
C567        C  0.94097515  0.25736579  0.72504739     0.88900
C568        C  0.05521505  0.30261988  0.96275276     0.88800
C569        C  0.05207459  0.25214827  0.72664945     0.88900
C570        C  0.94509961  0.30739390  0.96150556     0.89000
C571        C  0.13711068  0.28982594  0.87697407     0.87600
C572        C  0.16331759  0.25228023  0.89352530    -0.52600
C573        C  0.18437275  0.22793851  0.86554276     0.10600
C574        C  0.17644418  0.24443478  0.82163432     0.21500
C575        C  0.16664557  0.31891034  0.85236265    -0.53300
C576        C  0.18614242  0.29576237  0.82196787     0.10700
C577        C  0.10942122  0.26711132  0.84650530    -0.52900
C578        C  0.12950789  0.24388054  0.81727190     0.11200
H579        H  0.16492251  0.24538810  0.92544849     0.15700
H580        H  0.19288067  0.22489499  0.79811363     0.01500
H581        H  0.17221245  0.35411485  0.85888700     0.16100
H582        H  0.07656426  0.27237485  0.84612046     0.15800
C583        C  0.86130787  0.29518226  0.87990672     0.87600
C584        C  0.88670243  0.27630708  0.84544439    -0.52600
C585        C  0.86499049  0.25281382  0.81786631     0.10600
C586        C  0.81895059  0.24917387  0.82807226     0.21500
C587        C  0.82745771  0.32321309  0.86007203    -0.53300
C588        C  0.80535777  0.29927436  0.83235972     0.10700
C589        C  0.84012384  0.25451990  0.89795910    -0.52900
C590        C  0.81749173  0.23003955  0.87164589     0.11200
H591        H  0.91896675  0.28363334  0.84172913     0.15700
H592        H  0.80103912  0.22969325  0.80580555     0.01500
H593        H  0.82378193  0.35945757  0.86473905     0.16100
H594        H  0.84225687  0.24634686  0.92959700     0.15800
O595        O  0.96767318  0.48774318  0.72107151    -0.73300
O596        O  0.03239094  0.44633485  0.96584754    -0.73300
O597        O  0.04875976  0.48197414  0.70566435    -0.73400
O598        O  0.95102725  0.45209937  0.98122511    -0.73400
O599        O  0.94978193  0.02224953  0.95644465    -0.73300
O600        O  0.04753272  0.05197259  0.68052237    -0.73300
O601        O  0.03073589  0.01646530  0.94089762    -0.73300
O602        O  0.96643337  0.05787166  0.69608079    -0.73400
Ni603      Ni  0.00000877  0.46452579  0.01110173     1.25400
Ni604      Ni  0.99857458  0.03958645  0.98421392     1.25400
C605        C  0.95631020  0.52927192  0.72291070     0.88900
C606        C  0.04226476  0.47503483  0.93894173     0.88800
C607        C  0.06398621  0.52177017  0.70274685     0.88900
C608        C  0.93458962  0.48242790  0.95904608     0.89000
C609        C  0.12483049  0.48151720  0.85335293     0.87600
C610        C  0.10717848  0.51134066  0.82070708    -0.52600
C611        C  0.13560838  0.02942856  0.79563069     0.10600
C612        C  0.18030272  0.01865191  0.80814211     0.21500
C613        C  0.15163880  0.44712834  0.83126339    -0.53300
C614        C  0.18137248  0.46619863  0.80799090     0.10700
C615        C  0.15377452  0.01166599  0.87613359    -0.52900
C616        C  0.18271801  0.03232325  0.85331598     0.11200
H617        H  0.07465358  0.51233978  0.81439904     0.15700
H618        H  0.20368018  0.03477125  0.78883389     0.01500
H619        H  0.14556309  0.41132224  0.83160337     0.16100
H620        H  0.15055220  0.01725129  0.90817357     0.15800
C621        C  0.87257014  0.02547874  0.80735914     0.87600
C622        C  0.84376951  0.49451741  0.78512312    -0.52600
C623        C  0.81474415  0.47473222  0.80828076     0.10600
C624        C  0.81776124  0.48895003  0.85354212     0.21500
C625        C  0.84537776  0.06044145  0.82853196    -0.53300
C626        C  0.81682241  0.04143493  0.85324818     0.10700
C627        C  0.89059768  0.99659701  0.84059295    -0.52900
C628        C  0.86251470  0.47843658  0.86588471     0.11200
H629        H  0.84671958  0.48812030  0.75317506     0.15700
H630        H  0.79458393  0.47318790  0.87332037     0.01500
H631        H  0.84921489  0.09680876  0.82544470     0.16100
H632        H  0.92317915  0.99556582  0.84661907     0.15800
O633        O  0.74119857  0.07950885  0.97047087    -0.73300
O634        O  0.80431285  0.17316967  0.92036075    -0.73300
O635        O  0.74263713  0.17144710  0.97576594    -0.73400
O636        O  0.80293863  0.08124013  0.91442416    -0.73400
O637        O  0.75814242  0.08661890  0.86452200    -0.73300
O638        O  0.70024655  0.17640675  0.92407261    -0.73300
O639        O  0.76121248  0.17790189  0.86910969    -0.73300
O640        O  0.69741204  0.08551857  0.91989378    -0.73400
Ni641      Ni  0.77455854  0.12604844  0.94700105     1.25400
Ni642      Ni  0.72761591  0.13167031  0.89281727     1.25400
C643        C  0.70821538  0.06752117  0.95322727     0.88900
C644        C  0.79337110  0.19126365  0.88708018     0.88800
C645        C  0.71093281  0.18879642  0.95931306     0.88900
C646        C  0.79085503  0.07011032  0.87915827     0.89000
O647        O  0.75227516  0.43083011  0.80323822    -0.73300
O648        O  0.69023214  0.33709748  0.74959104    -0.73300
O649        O  0.74618316  0.34069966  0.81179157    -0.73400
O650        O  0.69640561  0.42777623  0.74098815    -0.73400
O651        O  0.74497111  0.41489586  0.69546581    -0.73300
O652        O  0.79670998  0.33097575  0.76769468    -0.73300
O653        O  0.74140513  0.32475554  0.70674677    -0.73300
O654        O  0.80052541  0.42101618  0.75695990    -0.73400
Ni655      Ni  0.71935969  0.38434742  0.77794260     1.25400
Ni656      Ni  0.77269702  0.37259442  0.73026070     1.25400
C657        C  0.78752014  0.44050728  0.78904252     0.88900
C658        C  0.70510957  0.31673416  0.71871589     0.88800
C659        C  0.78085541  0.32360284  0.80214280     0.88900
C660        C  0.71145242  0.43412157  0.70594221     0.89000
O661        O  0.30394797  0.07933417  0.91264983    -0.73300
O662        O  0.24123925  0.17490838  0.86190105    -0.73300
O663        O  0.30316521  0.17159200  0.91789418    -0.73400
O664        O  0.24180790  0.08230083  0.85699095    -0.73400
O665        O  0.19781707  0.08048009  0.90779763    -0.73300
O666        O  0.25862112  0.16659078  0.96820967    -0.73300
O667        O  0.19801047  0.17114995  0.91330648    -0.73300
O668        O  0.25829772  0.07553151  0.96215218    -0.73400
Ni669      Ni  0.27426737  0.12713531  0.88542918     1.25400
Ni670      Ni  0.22656392  0.12333319  0.93932705     1.25400
C671        C  0.29180141  0.06267073  0.94612216     0.88900
C672        C  0.20907458  0.18895639  0.88005524     0.88800
C673        C  0.29144492  0.18272735  0.95344848     0.88900
C674        C  0.20912665  0.06680863  0.87304545     0.89000
O675        O  0.24584142  0.33544830  0.80318845    -0.73300
O676        O  0.30104509  0.42163899  0.73868721    -0.73300
O677        O  0.24338306  0.42568318  0.79707869    -0.73400
O678        O  0.30252750  0.33121948  0.74313015    -0.73400
O679        O  0.25582284  0.32656979  0.69513688    -0.73300
O680        O  0.19539967  0.42113741  0.75010132    -0.73300
O681        O  0.25473285  0.41884632  0.69033149    -0.73300
O682        O  0.19758802  0.32963363  0.75666819    -0.73400
Ni683      Ni  0.27492642  0.37856739  0.77181707     1.25400
Ni684      Ni  0.22403272  0.37379077  0.72125547     1.25400
C685        C  0.21151844  0.32009568  0.79183102     0.88900
C686        C  0.28827907  0.43466503  0.70441177     0.88800
C687        C  0.20860395  0.43750320  0.78320849     0.88900
C688        C  0.28994317  0.31397644  0.71004896     0.89000
C689        C  0.09876308  0.53305409  0.72710900    -0.12100
C690        C  0.12188035  0.03668327  0.75506731    -0.13700
C691        C  0.06844553  0.46201334  0.90648589    -0.12100
C692        C  0.09346226  0.46328185  0.88006966    -0.13700
C693        C  0.87667016  0.46938815  0.90617494    -0.12100
C694        C  0.89986079  0.47154914  0.93429021    -0.13700
C695        C  0.92979931  0.04277051  0.75486126    -0.12100
C696        C  0.90409646  0.04285192  0.78058840    -0.13700
C697        C  0.10767194  0.23438374  0.78087532    -0.12100
C698        C  0.08320144  0.23791380  0.75415805    -0.13700
C699        C  0.08733494  0.31389218  0.93504089    -0.12100
C700        C  0.11277450  0.31154661  0.90883545    -0.13700
C701        C  0.91358315  0.32057409  0.93424323    -0.12100
C702        C  0.88720045  0.31782591  0.90937622    -0.13700
C703        C  0.90832222  0.24583769  0.75223950    -0.12100
C704        C  0.88421204  0.24343744  0.77966196    -0.13700
C705        C  0.40104505  0.27998941  0.89776876    -0.12100
C706        C  0.37786077  0.28261168  0.92592665    -0.13700
C707        C  0.43071027  0.20841798  0.74420672    -0.12100
C708        C  0.40508984  0.20912158  0.71847737    -0.13700
C709        C  0.56787939  0.28732191  0.92664744    -0.12100
C710        C  0.59220546  0.28777015  0.95357986    -0.13700
C711        C  0.62290894  0.21176380  0.74350195    -0.12100
C712        C  0.59986062  0.21447429  0.77171216    -0.13700
C713        C  0.40480933  0.03648102  0.70972765    -0.12100
C714        C  0.42926899  0.03834788  0.73642445    -0.13700
C715        C  0.37796371  0.46129109  0.91899074    -0.12100
C716        C  0.40129295  0.46535714  0.89106317    -0.13700
C717        C  0.60003612  0.45551359  0.93725579    -0.12100
C718        C  0.57350503  0.45601198  0.91235551    -0.13700
C719        C  0.62035816  0.02892440  0.73253319    -0.12100
C720        C  0.59706217  0.02858206  0.76058952    -0.13700
O721        O  0.46529291  0.55341404  0.12919885    -0.73300
O722        O  0.53294294  0.51111110  0.21498381    -0.73300
O723        O  0.54684824  0.54790298  0.14198061    -0.73400
O724        O  0.45101914  0.51674974  0.20250952    -0.73400
O725        O  0.45172104  0.94711845  0.17628622    -0.73300
O726        O  0.54760925  0.97799541  0.11626472    -0.73300
O727        O  0.53355045  0.94133368  0.18895594    -0.73300
O728        O  0.46660492  0.98356275  0.10330547    -0.73400
Ni729      Ni  0.49892877  0.53479908  0.17324191     1.25400
Ni730      Ni  0.49983595  0.96007386  0.14527315     1.25400
C731        C  0.45520614  0.02502622  0.10202391     0.88900
C732        C  0.54492480  0.46970224  0.21555466     0.88800
C733        C  0.56274582  0.51779426  0.11902994     0.88900
C734        C  0.43573739  0.97697656  0.19942824     0.89000
C735        C  0.37383432  0.51781509  0.01632139     0.87600
C736        C  0.39152483  0.98605286  0.31817682    -0.52600
C737        C  0.36331428  0.96806080  0.29285690     0.10600
C738        C  0.31853797  0.98061565  0.30447166     0.21500
C739        C  0.34838212  0.55202604  0.99318095    -0.53300
C740        C  0.31909806  0.53316205  0.30291926     0.10700
C741        C  0.34359242  0.98969417  0.03935993    -0.52900
C742        C  0.31462397  0.96875335  0.01678334     0.11200
H743        H  0.42416571  0.98412661  0.31239128     0.15700
H744        H  0.29515680  0.96449008  0.28525152     0.01500
H745        H  0.35371560  0.58785023  0.99450986     0.16100
H746        H  0.34612561  0.98550946  0.07158691     0.15800
C747        C  0.63019186  0.97377676  0.29855591     0.87600
C748        C  0.65500516  0.51054824  0.27885031    -0.52600
C749        C  0.68201112  0.53144586  0.30346520     0.10600
C750        C  0.68091299  0.51314770  0.01399836     0.21500
C751        C  0.66176580  0.94113015  0.31665354    -0.53300
C752        C  0.68791965  0.96143569  0.00991854     0.10700
C753        C  0.60948951  0.49650346  0.33418202    -0.52900
C754        C  0.63561630  0.51672475  0.02673067     0.11200
H755        H  0.65160590  0.51906885  0.24738757     0.15700
H756        H  0.70227544  0.53001601  0.03493491     0.01500
H757        H  0.66196723  0.90518090  0.31063629     0.16100
H758        H  0.57689845  0.49410548  0.00658346     0.15800
O759        O  0.45251515  0.79828413  0.18426417    -0.73300
O760        O  0.55027831  0.76637619  0.12672555    -0.73300
O761        O  0.46930584  0.76231884  0.11121193    -0.73400
O762        O  0.53354060  0.80253842  0.19980392    -0.73400
O763        O  0.53149848  0.73251401  0.22490554    -0.73300
O764        O  0.46725724  0.69226173  0.13625334    -0.73300
O765        O  0.54841454  0.69637129  0.15180643    -0.73300
O766        O  0.45068259  0.72824041  0.20925724    -0.73400
Ni767      Ni  0.50152227  0.78484806  0.15451233     1.25400
Ni768      Ni  0.49942712  0.70986053  0.18149528     1.25400
C769        C  0.43578780  0.76833741  0.20649210     0.88900
C770        C  0.56515152  0.72626530  0.12956612     0.88800
C771        C  0.45743913  0.72110926  0.10943392     0.88900
C772        C  0.54285845  0.77390128  0.22696078     0.89000
C773        C  0.37368944  0.72696911  0.02495431     0.87600
C774        C  0.34520379  0.75857511  0.04707560    -0.52600
C775        C  0.31635876  0.77882069  0.02396993     0.10600
C776        C  0.31902261  0.76403311  0.31208765     0.21500
C777        C  0.34598409  0.69260420  0.00436819    -0.53300
C778        C  0.31764883  0.71148663  0.31262544     0.10700
C779        C  0.39185358  0.75511339  0.99136021    -0.52900
C780        C  0.36380664  0.77359920  0.29952078     0.11200
H781        H  0.34832464  0.76508751  0.07896764     0.15700
H782        H  0.29597975  0.78014764  0.29236135     0.01500
H783        H  0.34904710  0.65677544  0.00898334     0.16100
H784        H  0.42444228  0.75561496  0.98516523     0.15800
C785        C  0.62409358  0.77095384  0.31373730     0.87600
C786        C  0.60760778  0.73862436  0.01180734    -0.52600
C787        C  0.63660063  0.72105820  0.03657640     0.10600
C788        C  0.68070117  0.73500615  0.02502136     0.21500
C789        C  0.64856035  0.80598221  0.33724659    -0.53300
C790        C  0.67867489  0.78751461  0.02719577     0.10700
C791        C  0.65513184  0.74371401  0.29035593    -0.52900
C792        C  0.68449699  0.72334178  0.31280237     0.11200
H793        H  0.57509965  0.73551491  0.01773902     0.15700
H794        H  0.70462079  0.71929808  0.04398630     0.01500
H795        H  0.64176011  0.84179868  0.33665819     0.16100
H796        H  0.65252085  0.73903855  0.25816717     0.15800
O797        O  0.95446226  0.72804873  0.03325456    -0.73300
O798        O  0.04032913  0.76259638  0.29454041    -0.73300
O799        O  0.03768157  0.72407346  0.03454826    -0.73400
O800        O  0.95779126  0.76634004  0.29331196    -0.73400
O801        O  0.95912576  0.83559272  0.32037764    -0.73300
O802        O  0.03945317  0.79328344  0.06161393    -0.73300
O803        O  0.04210991  0.83187519  0.32144484    -0.73300
O804        O  0.95632496  0.79717008  0.06042766    -0.73400
Ni805      Ni  0.99752371  0.74282414  0.99625111     1.25400
Ni806      Ni  0.99934106  0.81692343  0.02537885     1.25400
C807        C  0.94097507  0.75736611  0.05838070     0.88900
C808        C  0.05521500  0.80261988  0.29608591     0.88800
C809        C  0.05207454  0.75214840  0.05998265     0.88900
C810        C  0.94509956  0.80739389  0.29483893     0.89000
C811        C  0.13711066  0.78982589  0.21030730     0.87600
C812        C  0.16331762  0.75228023  0.22685856    -0.52600
C813        C  0.18437281  0.72793851  0.19887606     0.10600
C814        C  0.17644415  0.74443472  0.15496758     0.21500
C815        C  0.16664549  0.81891028  0.18569583    -0.53300
C816        C  0.18614236  0.79576230  0.15530107     0.10700
C817        C  0.10942118  0.76711127  0.17983856    -0.52900
C818        C  0.12950784  0.74388047  0.15060516     0.11200
H819        H  0.16492257  0.74538816  0.25878177     0.15700
H820        H  0.19288063  0.72489488  0.13144690     0.01500
H821        H  0.17221233  0.85411481  0.19222017     0.16100
H822        H  0.07656422  0.77237489  0.17945370     0.15800
C823        C  0.86130782  0.79518229  0.21324011     0.87600
C824        C  0.88670244  0.77630710  0.17877783    -0.52600
C825        C  0.86499054  0.75281382  0.15119973     0.10600
C826        C  0.81895058  0.74917391  0.16140562     0.21500
C827        C  0.82745766  0.82321311  0.19340541    -0.53300
C828        C  0.80535773  0.79927439  0.16569309     0.10700
C829        C  0.84012375  0.75451993  0.23129245    -0.52900
C830        C  0.81749162  0.73003960  0.20497922     0.11200
H831        H  0.91896676  0.78363339  0.17506260     0.15700
H832        H  0.80103916  0.72969329  0.13913886     0.01500
H833        H  0.82378180  0.85945757  0.19807250     0.16100
H834        H  0.84225680  0.74634689  0.26293035     0.15800
O835        O  0.96767328  0.98774320  0.05440486    -0.73300
O836        O  0.03239084  0.94633492  0.29918074    -0.73300
O837        O  0.04875974  0.98197412  0.03899773    -0.73400
O838        O  0.95102726  0.95209941  0.31455834    -0.73400
O839        O  0.94978203  0.52224954  0.28977798    -0.73300
O840        O  0.04753279  0.55197244  0.01385571    -0.73300
O841        O  0.03073600  0.51646534  0.27423101    -0.73300
O842        O  0.96643346  0.55787154  0.02941411    -0.73400
Ni843      Ni  0.00000873  0.96452583  0.34443498     1.25400
Ni844      Ni  0.99857463  0.53958650  0.31754731     1.25400
C845        C  0.95631030  0.02927193  0.05624401     0.88900
C846        C  0.04226461  0.97503490  0.27227492     0.88800
C847        C  0.06398625  0.02177010  0.03608015     0.88900
C848        C  0.93458962  0.98242789  0.29237931     0.89000
C849        C  0.12483044  0.98151721  0.18668624     0.87600
C850        C  0.10717849  0.01134080  0.15404044    -0.52600
C851        C  0.13560844  0.52942858  0.12896408     0.10600
C852        C  0.18030277  0.51865191  0.14147546     0.21500
C853        C  0.15163867  0.94712831  0.16459664    -0.53300
C854        C  0.18137238  0.96619859  0.14132418     0.10700
C855        C  0.15377464  0.51166588  0.20946697    -0.52900
C856        C  0.18271809  0.53232320  0.18664936     0.11200
H857        H  0.07465359  0.01233999  0.14773243     0.15700
H858        H  0.20368020  0.53477126  0.12216722     0.01500
H859        H  0.14556291  0.91132224  0.16493663     0.16100
H860        H  0.15055231  0.51725118  0.24150696     0.15800
C861        C  0.87257014  0.52547870  0.14069247     0.87600
C862        C  0.84376948  0.99451731  0.11845637    -0.52600
C863        C  0.81474411  0.97473216  0.14161401     0.10600
C864        C  0.81776126  0.98894994  0.18687538     0.21500
C865        C  0.84537771  0.56044143  0.16186523    -0.53300
C866        C  0.81682241  0.54143494  0.18658153     0.10700
C867        C  0.89059770  0.49659707  0.17392632    -0.52900
C868        C  0.86251471  0.97843646  0.19921797     0.11200
H869        H  0.84671949  0.98812024  0.08650829     0.15700
H870        H  0.79458394  0.97318784  0.20665362     0.01500
H871        H  0.84921478  0.59680873  0.15877789     0.16100
H872        H  0.92317917  0.49556591  0.17995243     0.15800
O873        O  0.74119858  0.57950882  0.30380423    -0.73300
O874        O  0.80431275  0.67316969  0.25369406    -0.73300
O875        O  0.74263711  0.67144696  0.30909936    -0.73400
O876        O  0.80293869  0.58124016  0.24775754    -0.73400
O877        O  0.75814242  0.58661886  0.19785544    -0.73300
O878        O  0.70024657  0.67640666  0.25740600    -0.73300
O879        O  0.76121234  0.67790191  0.20244303    -0.73300
O880        O  0.69741201  0.58551854  0.25322717    -0.73400
Ni881      Ni  0.77455854  0.62604841  0.28033441     1.25400
Ni882      Ni  0.72761587  0.63167027  0.22615066     1.25400
C883        C  0.70821538  0.56752114  0.28656065     0.88900
C884        C  0.79337097  0.69126369  0.22041352     0.88800
C885        C  0.71093284  0.68879631  0.29264645     0.88900
C886        C  0.79085507  0.57011033  0.21249166     0.89000
O887        O  0.75227505  0.93083013  0.13657149    -0.73300
O888        O  0.69023203  0.83709746  0.08292438    -0.73300
O889        O  0.74618307  0.84069966  0.14512492    -0.73400
O890        O  0.69640553  0.92777619  0.07432140    -0.73400
O891        O  0.74497115  0.91489589  0.02879917    -0.73300
O892        O  0.79670993  0.83097577  0.10102809    -0.73300
O893        O  0.74140506  0.82475551  0.04008018    -0.73300
O894        O  0.80052535  0.92101611  0.09029324    -0.73400
Ni895      Ni  0.71935959  0.88434741  0.11127590     1.25400
Ni896      Ni  0.77269697  0.87259440  0.06359408     1.25400
C897        C  0.78752005  0.94050725  0.12237581     0.88900
C898        C  0.70510948  0.81673415  0.05204925     0.88800
C899        C  0.78085535  0.82360286  0.13547618     0.88900
C900        C  0.71145242  0.93412157  0.03927549     0.89000
O901        O  0.30394800  0.57933415  0.24598321    -0.73300
O902        O  0.24123938  0.67490841  0.19523444    -0.73300
O903        O  0.30316534  0.67159201  0.25122741    -0.73400
O904        O  0.24180793  0.58230085  0.19032434    -0.73400
O905        O  0.19781710  0.58048013  0.24113100    -0.73300
O906        O  0.25862128  0.66659081  0.30154293    -0.73300
O907        O  0.19801061  0.67115001  0.24663987    -0.73300
O908        O  0.25829774  0.57553149  0.29548557    -0.73400
Ni909      Ni  0.27426745  0.62713530  0.21876253     1.25400
Ni910      Ni  0.22656401  0.62333321  0.27266041     1.25400
C911        C  0.29180142  0.56267070  0.27945555     0.88900
C912        C  0.20907472  0.68895644  0.21338862     0.88800
C913        C  0.29144503  0.68272743  0.28678168     0.88900
C914        C  0.20912669  0.56680865  0.20637881     0.89000
O915        O  0.24584138  0.83544827  0.13652177    -0.73300
O916        O  0.30104499  0.92163905  0.07202052    -0.73300
O917        O  0.24338297  0.92568316  0.13041207    -0.73400
O918        O  0.30252739  0.83121944  0.07646347    -0.73400
O919        O  0.25582287  0.82656989  0.02847006    -0.73300
O920        O  0.19539966  0.92113737  0.08343461    -0.73300
O921        O  0.25473284  0.91884630  0.02366472    -0.73300
O922        O  0.19758809  0.82963361  0.09000141    -0.73400
Ni923      Ni  0.27492635  0.87856739  0.10515042     1.25400
Ni924      Ni  0.22403274  0.87379079  0.05458871     1.25400
C925        C  0.21151844  0.82009564  0.12516427     0.88900
C926        C  0.28827901  0.93466503  0.03774503     0.88800
C927        C  0.20860388  0.93750315  0.11654182     0.88900
C928        C  0.28994313  0.81397648  0.04338222     0.89000
C929        C  0.09876315  0.03305397  0.06044230    -0.12100
C930        C  0.12188041  0.53668325  0.08840070    -0.13700
C931        C  0.06844535  0.96201339  0.23981905    -0.12100
C932        C  0.09346214  0.96328185  0.21340288    -0.13700
C933        C  0.87667015  0.96938785  0.23950819    -0.12100
C934        C  0.89986081  0.97154897  0.26762343    -0.13700
C935        C  0.92979948  0.54277039  0.08819467    -0.12100
C936        C  0.90409655  0.54285181  0.11392175    -0.13700
C937        C  0.10767187  0.73438376  0.11420854    -0.12100
C938        C  0.08320140  0.73791390  0.08749124    -0.13700
C939        C  0.08733496  0.81389219  0.26837411    -0.12100
C940        C  0.11277454  0.81154661  0.24216869    -0.13700
C941        C  0.91358305  0.82057412  0.26757667    -0.12100
C942        C  0.88720035  0.81782593  0.24270966    -0.13700
C943        C  0.90832220  0.74583796  0.08557285    -0.12100
C944        C  0.88421210  0.74343753  0.11299537    -0.13700
C945        C  0.40104507  0.77998977  0.23110210    -0.12100
C946        C  0.37786072  0.78261207  0.25925994    -0.13700
C947        C  0.43071020  0.70841821  0.07754002    -0.12100
C948        C  0.40508974  0.70912179  0.05181070    -0.13700
C949        C  0.56787935  0.78732191  0.25998073    -0.12100
C950        C  0.59220553  0.78776995  0.28691306    -0.13700
C951        C  0.62290883  0.71176379  0.07683532    -0.12100
C952        C  0.59986055  0.71447421  0.10504556    -0.13700
C953        C  0.40480920  0.53648130  0.04306115    -0.12100
C954        C  0.42926890  0.53834813  0.06975792    -0.13700
C955        C  0.37796353  0.96129092  0.25232395    -0.12100
C956        C  0.40129278  0.96535708  0.22439641    -0.13700
C957        C  0.60003593  0.95551356  0.27058923    -0.12100
C958        C  0.57350489  0.95601177  0.24568891    -0.13700
C959        C  0.62035832  0.52892460  0.06586652    -0.12100
C960        C  0.59706231  0.52858224  0.09392284    -0.13700
O961        O  0.46529287  0.55341400  0.46253211    -0.73300
O962        O  0.53294281  0.51111117  0.54831719    -0.73300
O963        O  0.54684818  0.54790294  0.47531388    -0.73400
O964        O  0.45101907  0.51674981  0.53584279    -0.73400
O965        O  0.45172098  0.94711852  0.50961949    -0.73300
O966        O  0.54760919  0.97799549  0.44959800    -0.73300
O967        O  0.53355039  0.94133374  0.52228921    -0.73300
O968        O  0.46660489  0.98356284  0.43663878    -0.73400
Ni969      Ni  0.49892871  0.53479908  0.50657519     1.25400
Ni970      Ni  0.49983589  0.96007394  0.47860644     1.25400
C971        C  0.45520608  0.02502630  0.43535727     0.88900
C972        C  0.54492482  0.46970236  0.54888804     0.88800
C973        C  0.56274580  0.51779420  0.45236325     0.88900
C974        C  0.43573732  0.97697661  0.53276152     0.89000
C975        C  0.37383427  0.51781486  0.34965471     0.87600
C976        C  0.39152481  0.98605293  0.65151010    -0.52600
C977        C  0.36331426  0.96806087  0.62619019     0.10600
C978        C  0.31853799  0.98061568  0.63780500     0.21500
C979        C  0.34838211  0.55202591  0.32651436    -0.53300
C980        C  0.31909809  0.53316208  0.63625267     0.10700
C981        C  0.34359240  0.98969420  0.37269326    -0.52900
C982        C  0.31462395  0.96875339  0.35011664     0.11200
H983        H  0.42416568  0.98412664  0.64572453     0.15700
H984        H  0.29515680  0.96449011  0.61858489     0.01500
H985        H  0.35371560  0.58785009  0.32784341     0.16100
H986        H  0.34612554  0.98550953  0.40492024     0.15800
C987        C  0.63019191  0.97377674  0.63188911     0.87600
C988        C  0.65500518  0.51054836  0.61218375    -0.52600
C989        C  0.68201120  0.53144594  0.63679860     0.10600
C990        C  0.68091290  0.51314755  0.34733168     0.21500
C991        C  0.66176589  0.94113017  0.64998668    -0.53300
C992        C  0.68791958  0.96143569  0.34325194     0.10700
C993        C  0.60948958  0.49650373  0.66751550    -0.52900
C994        C  0.63561622  0.51672454  0.36006396     0.11200
H995        H  0.65160584  0.51906899  0.58072103     0.15700
H996        H  0.70227533  0.53001586  0.36826826     0.01500
H997        H  0.66196738  0.90518094  0.64396934     0.16100
H998        H  0.57689838  0.49410518  0.33991674     0.15800
O999        O  0.45251507  0.79828414  0.51759756    -0.73300
O1000       O  0.55027828  0.76637633  0.46005898    -0.73300
O1001       O  0.46930579  0.76231902  0.44454534    -0.73400
O1002       O  0.53354051  0.80253856  0.53313730    -0.73400
O1003       O  0.53149864  0.73251411  0.55823884    -0.73300
O1004       O  0.46725718  0.69226191  0.46958673    -0.73300
O1005       O  0.54841448  0.69637136  0.48513970    -0.73300
O1006       O  0.45068268  0.72824048  0.54259077    -0.73400
Ni1007     Ni  0.50152220  0.78484817  0.48784574     1.25400
Ni1008     Ni  0.49942715  0.70986063  0.51482865     1.25400
C1009       C  0.43578779  0.76833743  0.53982555     0.88900
C1010       C  0.56515147  0.72626541  0.46289944     0.88800
C1011       C  0.45743911  0.72110943  0.44276728     0.88900
C1012       C  0.54285848  0.77390143  0.56029413     0.89000
C1013       C  0.37368953  0.72696915  0.35828757     0.87600
C1014       C  0.34520388  0.75857515  0.38040888    -0.52600
C1015       C  0.31635879  0.77882070  0.35730323     0.10600
C1016       C  0.31902255  0.76403299  0.64542103     0.21500
C1017       C  0.34598418  0.69260425  0.33770147    -0.53300
C1018       C  0.31764882  0.71148651  0.64595883     0.10700
C1019       C  0.39185364  0.75511346  0.32469349    -0.52900
C1020       C  0.36380657  0.77359911  0.63285414     0.11200
H1021       H  0.34832479  0.76508757  0.41230091     0.15700
H1022       H  0.29597964  0.78014747  0.62569477     0.01500
H1023       H  0.34904716  0.65677547  0.34231659     0.16100
H1024       H  0.42444234  0.75561504  0.31849846     0.15800
C1025       C  0.62409357  0.77095410  0.64707065     0.87600
C1026       C  0.60760783  0.73862421  0.34514056    -0.52600
C1027       C  0.63660065  0.72105805  0.36990967     0.10600
C1028       C  0.68070124  0.73500601  0.35835467     0.21500
C1029       C  0.64856038  0.80598243  0.67057994    -0.53300
C1030       C  0.67867495  0.78751448  0.36052907     0.10700
C1031       C  0.65513178  0.74371425  0.62368924    -0.52900
C1032       C  0.68449697  0.72334199  0.64613563     0.11200
H1033       H  0.57509970  0.73551491  0.35107230     0.15700
H1034       H  0.70462084  0.71929794  0.37731959     0.01500
H1035       H  0.64176017  0.84179892  0.66999160     0.16100
H1036       H  0.65252065  0.73903873  0.59150049     0.15800
O1037       O  0.95446234  0.72804850  0.36658781    -0.73300
O1038       O  0.04032911  0.76259640  0.62787376    -0.73300
O1039       O  0.03768171  0.72407341  0.36788154    -0.73400
O1040       O  0.95779123  0.76634005  0.62664531    -0.73400
O1041       O  0.95912583  0.83559276  0.65371090    -0.73300
O1042       O  0.03945324  0.79328333  0.39494731    -0.73300
O1043       O  0.04211003  0.83187519  0.65477821    -0.73300
O1044       O  0.95632513  0.79716973  0.39376110    -0.73400
Ni1045     Ni  0.99752380  0.74282402  0.32958441     1.25400
Ni1046     Ni  0.99934111  0.81692325  0.35871226     1.25400
C1047       C  0.94097522  0.75736580  0.39171406     0.88900
C1048       C  0.05521507  0.80261988  0.62941928     0.88800
C1049       C  0.05207462  0.75214831  0.39331599     0.88900
C1050       C  0.94509958  0.80739391  0.62817222     0.89000
C1051       C  0.13711063  0.78982590  0.54364058     0.87600
C1052       C  0.16331759  0.75228026  0.56019185    -0.52600
C1053       C  0.18437278  0.72793852  0.53220935     0.10600
C1054       C  0.17644415  0.74443475  0.48830088     0.21500
C1055       C  0.16664545  0.81891030  0.51902915    -0.53300
C1056       C  0.18614234  0.79576234  0.48863440     0.10700
C1057       C  0.10942117  0.76711127  0.51317181    -0.52900
C1058       C  0.12950787  0.74388046  0.48393843     0.11200
H1059       H  0.16492256  0.74538822  0.59211506     0.15700
H1060       H  0.19288065  0.72489494  0.46478019     0.01500
H1061       H  0.17221233  0.85411481  0.52555352     0.16100
H1062       H  0.07656421  0.77237487  0.51278692     0.15800
C1063       C  0.86130782  0.79518231  0.54657340     0.87600
C1064       C  0.88670245  0.77630712  0.51211113    -0.52600
C1065       C  0.86499056  0.75281383  0.48453302     0.10600
C1066       C  0.81895063  0.74917394  0.49473889     0.21500
C1067       C  0.82745771  0.82321315  0.52673868    -0.53300
C1068       C  0.80535782  0.79927443  0.49902634     0.10700
C1069       C  0.84012372  0.75451997  0.56462575    -0.52900
C1070       C  0.81749161  0.73003964  0.53831249     0.11200
H1071       H  0.91896676  0.78363342  0.50839591     0.15700
H1072       H  0.80103921  0.72969333  0.47247211     0.01500
H1073       H  0.82378183  0.85945761  0.53140578     0.16100
H1074       H  0.84225673  0.74634693  0.59626365     0.15800
O1075       O  0.96767317  0.98774318  0.38773817    -0.73300
O1076       O  0.03239079  0.94633494  0.63251420    -0.73300
O1077       O  0.04875967  0.98197417  0.37233103    -0.73400
O1078       O  0.95102714  0.95209948  0.64789182    -0.73400
O1079       O  0.94978198  0.52224956  0.62311126    -0.73300
O1080       O  0.04753282  0.55197247  0.34718907    -0.73300
O1081       O  0.03073598  0.51646537  0.60756439    -0.73300
O1082       O  0.96643348  0.55787150  0.36274746    -0.73400
Ni1083     Ni  0.00000865  0.96452591  0.67776842     1.25400
Ni1084     Ni  0.99857457  0.53958651  0.65088064     1.25400
C1085       C  0.95631025  0.02927193  0.38957741     0.88900
C1086       C  0.04226466  0.97503493  0.60560841     0.88800
C1087       C  0.06398617  0.02177017  0.36941353     0.88900
C1088       C  0.93458953  0.98242800  0.62571277     0.89000
C1089       C  0.12483050  0.98151722  0.52001965     0.87600
C1090       C  0.10717853  0.01134073  0.48737380    -0.52600
C1091       C  0.13560842  0.52942857  0.46229744     0.10600
C1092       C  0.18030274  0.51865192  0.47480887     0.21500
C1093       C  0.15163881  0.94712832  0.49793011    -0.53300
C1094       C  0.18137250  0.96619859  0.47465762     0.10700
C1095       C  0.15377452  0.51166593  0.54280034    -0.52900
C1096       C  0.18271799  0.53232323  0.51998275     0.11200
H1097       H  0.07465363  0.01233991  0.48106579     0.15700
H1098       H  0.20368019  0.53477128  0.45550065     0.01500
H1099       H  0.14556309  0.91132224  0.49827014     0.16100
H1100       H  0.15055219  0.51725120  0.57484033     0.15800
C1101       C  0.87257013  0.52547870  0.47402579     0.87600
C1102       C  0.84376941  0.99451735  0.45178970    -0.52600
C1103       C  0.81474402  0.97473222  0.47494732     0.10600
C1104       C  0.81776113  0.98894998  0.52020868     0.21500
C1105       C  0.84537779  0.56044146  0.49519857    -0.53300
C1106       C  0.81682246  0.54143500  0.51991486     0.10700
C1107       C  0.89059767  0.49659701  0.50725962    -0.52900
C1108       C  0.86251459  0.97843649  0.53255131     0.11200
H1109       H  0.84671947  0.98812029  0.41984162     0.15700
H1110       H  0.79458378  0.97318788  0.53998688     0.01500
H1111       H  0.84921491  0.59680875  0.49211122     0.16100
H1112       H  0.92317914  0.49556579  0.51328572     0.15800
O1113       O  0.74119865  0.57950889  0.63713760    -0.73300
O1114       O  0.80431272  0.67316975  0.58702734    -0.73300
O1115       O  0.74263706  0.67144711  0.64243262    -0.73400
O1116       O  0.80293867  0.58124019  0.58109088    -0.73400
O1117       O  0.75814246  0.58661892  0.53118871    -0.73300
O1118       O  0.70024654  0.67640681  0.59073925    -0.73300
O1119       O  0.76121236  0.67790191  0.53577626    -0.73300
O1120       O  0.69741209  0.58551859  0.58656053    -0.73400
Ni1121     Ni  0.77455852  0.62604849  0.61366772     1.25400
Ni1122     Ni  0.72761589  0.63167033  0.55948395     1.25400
C1123       C  0.70821547  0.56752119  0.61989401     0.88900
C1124       C  0.79337097  0.69126372  0.55374678     0.88800
C1125       C  0.71093281  0.68879650  0.62597970     0.88900
C1126       C  0.79085510  0.57011039  0.54582497     0.89000
O1127       O  0.75227498  0.93083019  0.46990480    -0.73300
O1128       O  0.69023210  0.83709742  0.41625766    -0.73300
O1129       O  0.74618319  0.84069972  0.47845820    -0.73400
O1130       O  0.69640550  0.92777619  0.40765475    -0.73400
O1131       O  0.74497112  0.91489593  0.36213252    -0.73300
O1132       O  0.79671002  0.83097577  0.43436132    -0.73300
O1133       O  0.74140512  0.82475555  0.37341342    -0.73300
O1134       O  0.80052535  0.92101610  0.42362661    -0.73400
Ni1135     Ni  0.71935961  0.88434741  0.44460922     1.25400
Ni1136     Ni  0.77269701  0.87259442  0.39692738     1.25400
C1137       C  0.78751999  0.94050729  0.45570915     0.88900
C1138       C  0.70510954  0.81673413  0.38538251     0.88800
C1139       C  0.78085546  0.82360290  0.46880944     0.88900
C1140       C  0.71145237  0.93412157  0.37260886     0.89000
O1141       O  0.30394795  0.57933411  0.57931657    -0.73300
O1142       O  0.24123932  0.67490834  0.52856772    -0.73300
O1143       O  0.30316530  0.67159197  0.58456074    -0.73400
O1144       O  0.24180787  0.58230075  0.52365775    -0.73400
O1145       O  0.19781698  0.58048016  0.57446438    -0.73300
O1146       O  0.25862120  0.66659082  0.63487622    -0.73300
O1147       O  0.19801055  0.67115002  0.57997316    -0.73300
O1148       O  0.25829769  0.57553150  0.62881892    -0.73400
Ni1149     Ni  0.27426740  0.62713525  0.55209587     1.25400
Ni1150     Ni  0.22656394  0.62333323  0.60599373     1.25400
C1151       C  0.29180140  0.56267071  0.61278893     0.88900
C1152       C  0.20907467  0.68895643  0.54672190     0.88800
C1153       C  0.29144499  0.68272737  0.62011501     0.88900
C1154       C  0.20912660  0.56680863  0.53971221     0.89000
O1155       O  0.24584139  0.83544830  0.46985510    -0.73300
O1156       O  0.30104501  0.92163904  0.40535379    -0.73300
O1157       O  0.24338311  0.92568317  0.46374540    -0.73400
O1158       O  0.30252740  0.83121943  0.40979675    -0.73400
O1159       O  0.25582283  0.82656987  0.36180341    -0.73300
O1160       O  0.19539972  0.92113739  0.41676802    -0.73300
O1161       O  0.25473279  0.91884631  0.35699805    -0.73300
O1162       O  0.19758806  0.82963366  0.42333478    -0.73400
Ni1163     Ni  0.27492640  0.87856738  0.43848372     1.25400
Ni1164     Ni  0.22403273  0.87379080  0.38792207     1.25400
C1165       C  0.21151842  0.82009569  0.45849762     0.88900
C1166       C  0.28827898  0.93466506  0.37107834     0.88800
C1167       C  0.20860399  0.93750315  0.44987522     0.88900
C1168       C  0.28994312  0.81397646  0.37671554     0.89000
C1169       C  0.09876308  0.03305401  0.39377571    -0.12100
C1170       C  0.12188044  0.53668330  0.42173405    -0.13700
C1171       C  0.06844543  0.96201341  0.57315254    -0.12100
C1172       C  0.09346220  0.96328189  0.54673634    -0.13700
C1173       C  0.87667007  0.96938814  0.57284157    -0.12100
C1174       C  0.89986075  0.97154919  0.60095681    -0.13700
C1175       C  0.92979942  0.54277030  0.42152796    -0.12100
C1176       C  0.90409652  0.54285180  0.44725507    -0.13700
C1177       C  0.10767194  0.73438359  0.44754184    -0.12100
C1178       C  0.08320146  0.73791375  0.42082456    -0.13700
C1179       C  0.08733501  0.81389216  0.60170746    -0.12100
C1180       C  0.11277452  0.81154661  0.57550198    -0.13700
C1181       C  0.91358310  0.82057415  0.60090992    -0.12100
C1182       C  0.88720037  0.81782596  0.57604295    -0.13700
C1183       C  0.90832232  0.74583769  0.41890618    -0.12100
C1184       C  0.88421216  0.74343747  0.44632867    -0.13700
C1185       C  0.40104500  0.77998976  0.56443549    -0.12100
C1186       C  0.37786062  0.78261204  0.59259330    -0.13700
C1187       C  0.43071032  0.70841834  0.41087328    -0.12100
C1188       C  0.40508990  0.70912185  0.38514392    -0.13700
C1189       C  0.56787931  0.78732220  0.59331411    -0.12100
C1190       C  0.59220546  0.78777027  0.62024647    -0.13700
C1191       C  0.62290877  0.71176379  0.41016860    -0.12100
C1192       C  0.59986046  0.71447431  0.43837883    -0.13700
C1193       C  0.40480916  0.53648105  0.37639446    -0.12100
C1194       C  0.42926886  0.53834800  0.40309121    -0.13700
C1195       C  0.37796347  0.96129095  0.58565723    -0.12100
C1196       C  0.40129271  0.96535710  0.55772968    -0.13700
C1197       C  0.60003607  0.95551356  0.60392234    -0.12100
C1198       C  0.57350499  0.95601180  0.57902205    -0.13700
C1199       C  0.62035824  0.52892439  0.39919979    -0.12100
C1200       C  0.59706225  0.52858218  0.42725612    -0.13700
O1201       O  0.46529286  0.55341400  0.79586547    -0.73300
O1202       O  0.53294295  0.51111123  0.88165046    -0.73300
O1203       O  0.54684820  0.54790308  0.80864720    -0.73400
O1204       O  0.45101923  0.51674978  0.86917623    -0.73400
O1205       O  0.45172102  0.94711822  0.84295285    -0.73300
O1206       O  0.54760918  0.97799539  0.78293135    -0.73300
O1207       O  0.53355054  0.94133369  0.85562252    -0.73300
O1208       O  0.46660483  0.98356263  0.76997211    -0.73400
Ni1209     Ni  0.49892877  0.53479913  0.83990853     1.25400
Ni1210     Ni  0.49983593  0.96007376  0.81193978     1.25400
C1211       C  0.45520605  0.02502611  0.76869060     0.88900
C1212       C  0.54492483  0.46970237  0.88222138     0.88800
C1213       C  0.56274586  0.51779430  0.78569664     0.88900
C1214       C  0.43573735  0.97697629  0.86609491     0.89000
C1215       C  0.37383440  0.51781492  0.68298803     0.87600
C1216       C  0.39152475  0.98605287  0.98484341    -0.52600
C1217       C  0.36331419  0.96806080  0.95952353     0.10600
C1218       C  0.31853792  0.98061565  0.97113834     0.21500
C1219       C  0.34838220  0.55202591  0.65984770    -0.53300
C1220       C  0.31909810  0.53316207  0.96958590     0.10700
C1221       C  0.34359248  0.98969417  0.70602661    -0.52900
C1222       C  0.31462402  0.96875336  0.68344999     0.11200
H1223       H  0.42416562  0.98412658  0.97905781     0.15700
H1224       H  0.29515675  0.96449006  0.95191820     0.01500
H1225       H  0.35371584  0.58785007  0.66117659     0.16100
H1226       H  0.34612565  0.98550949  0.73825359     0.15800
C1227       C  0.63019194  0.97377668  0.96522249     0.87600
C1228       C  0.65500514  0.51054838  0.94551701    -0.52600
C1229       C  0.68201118  0.53144598  0.97013184     0.10600
C1230       C  0.68091298  0.51314769  0.68066511     0.21500
C1231       C  0.66176595  0.94113012  0.98332009    -0.53300
C1232       C  0.68791962  0.96143570  0.67658514     0.10700
C1233       C  0.60948959  0.49650367  0.00084876    -0.52900
C1234       C  0.63561632  0.51672483  0.69339741     0.11200
H1235       H  0.65160573  0.51906905  0.91405430     0.15700
H1236       H  0.70227542  0.53001600  0.70160168     0.01500
H1237       H  0.66196749  0.90518088  0.97730278     0.16100
H1238       H  0.57689846  0.49410546  0.67325024     0.15800
O1239       O  0.45251506  0.79828397  0.85093088    -0.73300
O1240       O  0.55027833  0.76637627  0.79339231    -0.73300
O1241       O  0.46930588  0.76231889  0.77787867    -0.73400
O1242       O  0.53354046  0.80253847  0.86647072    -0.73400
O1243       O  0.53149863  0.73251395  0.89157216    -0.73300
O1244       O  0.46725739  0.69226171  0.80291996    -0.73300
O1245       O  0.54841463  0.69637127  0.81847301    -0.73300
O1246       O  0.45068271  0.72824025  0.87592398    -0.73400
Ni1247     Ni  0.50152223  0.78484807  0.82117908     1.25400
Ni1248     Ni  0.49942725  0.70986046  0.84816192     1.25400
C1249       C  0.43578777  0.76833720  0.87315880     0.88900
C1250       C  0.56515156  0.72626536  0.79623275     0.88800
C1251       C  0.45743921  0.72110929  0.77610060     0.88900
C1252       C  0.54285841  0.77390129  0.89362751     0.89000
C1253       C  0.37368953  0.72696912  0.69162096     0.87600
C1254       C  0.34520384  0.75857510  0.71374226    -0.52600
C1255       C  0.31635875  0.77882061  0.69063661     0.10600
C1256       C  0.31902256  0.76403306  0.97875436     0.21500
C1257       C  0.34598421  0.69260421  0.67103483    -0.53300
C1258       C  0.31764874  0.71148658  0.97929218     0.10700
C1259       C  0.39185360  0.75511341  0.65802684    -0.52900
C1260       C  0.36380658  0.77359911  0.96618747     0.11200
H1261       H  0.34832475  0.76508755  0.74563429     0.15700
H1262       H  0.29597969  0.78014755  0.95902805     0.01500
H1263       H  0.34904730  0.65677545  0.67565001     0.16100
H1264       H  0.42444231  0.75561502  0.65183183     0.15800
C1265       C  0.62409348  0.77095401  0.98040406     0.87600
C1266       C  0.60760788  0.73862441  0.67847391    -0.52600
C1267       C  0.63660073  0.72105825  0.70324299     0.10600
C1268       C  0.68070128  0.73500621  0.69168797     0.21500
C1269       C  0.64856030  0.80598238  0.00391331    -0.53300
C1270       C  0.67867497  0.78751466  0.69386239     0.10700
C1271       C  0.65513169  0.74371416  0.95702266    -0.52900
C1272       C  0.68449686  0.72334190  0.97946905     0.11200
H1273       H  0.57509975  0.73551490  0.68440557     0.15700
H1274       H  0.70462092  0.71929818  0.71065289     0.01500
H1275       H  0.64176011  0.84179887  0.00332491     0.16100
H1276       H  0.65252063  0.73903871  0.92483391     0.15800
O1277       O  0.95446228  0.72804855  0.69992116    -0.73300
O1278       O  0.04032912  0.76259641  0.96120711    -0.73300
O1279       O  0.03768164  0.72407343  0.70121493    -0.73400
O1280       O  0.95779117  0.76634021  0.95997860    -0.73400
O1281       O  0.95912575  0.83559292  0.98704420    -0.73300
O1282       O  0.03945324  0.79328336  0.72828065    -0.73300
O1283       O  0.04210995  0.83187525  0.98811148    -0.73300
O1284       O  0.95632514  0.79716982  0.72709436    -0.73400
Ni1285     Ni  0.99752376  0.74282404  0.66291777     1.25400
Ni1286     Ni  0.99934116  0.81692329  0.69204556     1.25400
C1287       C  0.94097517  0.75736592  0.72504735     0.88900
C1288       C  0.05521504  0.80261991  0.96275259     0.88800
C1289       C  0.05207458  0.75214832  0.72664936     0.88900
C1290       C  0.94509953  0.80739410  0.96150550     0.89000
C1291       C  0.13711057  0.78982586  0.87697393     0.87600
C1292       C  0.16331753  0.75228021  0.89352519    -0.52600
C1293       C  0.18437275  0.72793851  0.86554267     0.10600
C1294       C  0.17644414  0.74443478  0.82163423     0.21500
C1295       C  0.16664540  0.81891030  0.85236258    -0.53300
C1296       C  0.18614233  0.79576238  0.82196782     0.10700
C1297       C  0.10942113  0.76711125  0.84650514    -0.52900
C1298       C  0.12950785  0.74388048  0.81727176     0.11200
H1299       H  0.16492251  0.74538813  0.92544839     0.15700
H1300       H  0.19288070  0.72489503  0.79811354     0.01500
H1301       H  0.17221219  0.85411482  0.85888700     0.16100
H1302       H  0.07656416  0.77237483  0.84612022     0.15800
C1303       C  0.86130787  0.79518242  0.87990668     0.87600
C1304       C  0.88670248  0.77630718  0.84544440    -0.52600
C1305       C  0.86499054  0.75281390  0.81786630     0.10600
C1306       C  0.81895062  0.74917402  0.82807221     0.21500
C1307       C  0.82745775  0.82321325  0.86007197    -0.53300
C1308       C  0.80535783  0.79927452  0.83235965     0.10700
C1309       C  0.84012382  0.75452007  0.89795906    -0.52900
C1310       C  0.81749172  0.73003970  0.87164583     0.11200
H1311       H  0.91896679  0.78363341  0.84172916     0.15700
H1312       H  0.80103914  0.72969345  0.80580546     0.01500
H1313       H  0.82378192  0.85945772  0.86473904     0.16100
H1314       H  0.84225687  0.74634703  0.92959695     0.15800
O1315       O  0.96767309  0.98774332  0.72107157    -0.73300
O1316       O  0.03239099  0.94633480  0.96584752    -0.73300
O1317       O  0.04875960  0.98197431  0.70566439    -0.73400
O1318       O  0.95102727  0.95209936  0.98122511    -0.73400
O1319       O  0.94978199  0.52224956  0.95644468    -0.73300
O1320       O  0.04753273  0.55197243  0.68052241    -0.73300
O1321       O  0.03073594  0.51646537  0.94089768    -0.73300
O1322       O  0.96643338  0.55787152  0.69608076    -0.73400
Ni1323     Ni  0.00000881  0.96452576  0.01110172     1.25400
Ni1324     Ni  0.99857459  0.53958651  0.98421397     1.25400
C1325       C  0.95631016  0.02927207  0.72291073     0.88900
C1326       C  0.04226475  0.97503478  0.93894168     0.88800
C1327       C  0.06398612  0.02177030  0.70274685     0.88900
C1328       C  0.93458961  0.98242784  0.95904606     0.89000
C1329       C  0.12483051  0.98151725  0.85335291     0.87600
C1330       C  0.10717852  0.01134075  0.82070708    -0.52600
C1331       C  0.13560834  0.52942853  0.79563071     0.10600
C1332       C  0.18030266  0.51865194  0.80814214     0.21500
C1333       C  0.15163880  0.94712835  0.83126337    -0.53300
C1334       C  0.18137251  0.96619862  0.80799089     0.10700
C1335       C  0.15377448  0.51166598  0.87613361    -0.52900
C1336       C  0.18271794  0.53232328  0.85331601     0.11200
H1337       H  0.07465362  0.01233994  0.81439908     0.15700
H1338       H  0.20368010  0.53477131  0.78883391     0.01500
H1339       H  0.14556309  0.91132227  0.83160339     0.16100
H1340       H  0.15055216  0.51725128  0.90817360     0.15800
C1341       C  0.87257013  0.52547875  0.80735922     0.87600
C1342       C  0.84376952  0.99451741  0.78512300    -0.52600
C1343       C  0.81474414  0.97473223  0.80828061     0.10600
C1344       C  0.81776124  0.98894996  0.85354199     0.21500
C1345       C  0.84537778  0.56044149  0.82853202    -0.53300
C1346       C  0.81682244  0.54143501  0.85324829     0.10700
C1347       C  0.89059768  0.49659704  0.84059302    -0.52900
C1348       C  0.86251472  0.97843648  0.86588459     0.11200
H1349       H  0.84671958  0.98812036  0.75317492     0.15700
H1350       H  0.79458390  0.97318781  0.87332019     0.01500
H1351       H  0.84921486  0.59680879  0.82544471     0.16100
H1352       H  0.92317915  0.49556578  0.84661908     0.15800
O1353       O  0.74119864  0.57950899  0.97047086    -0.73300
O1354       O  0.80431284  0.67316989  0.92036076    -0.73300
O1355       O  0.74263707  0.67144719  0.97576597    -0.73400
O1356       O  0.80293871  0.58124042  0.91442417    -0.73400
O1357       O  0.75814245  0.58661895  0.86452203    -0.73300
O1358       O  0.70024656  0.67640684  0.92407259    -0.73300
O1359       O  0.76121251  0.67790196  0.86910967    -0.73300
O1360       O  0.69741208  0.58551864  0.91989377    -0.73400
Ni1361     Ni  0.77455856  0.62604863  0.94700105     1.25400
Ni1362     Ni  0.72761594  0.63167039  0.89281727     1.25400
C1363       C  0.70821546  0.56752126  0.95322727     0.88900
C1364       C  0.79337112  0.69126379  0.88708016     0.88800
C1365       C  0.71093277  0.68879649  0.95931306     0.88900
C1366       C  0.79085508  0.57011046  0.87915832     0.89000
O1367       O  0.75227509  0.93083021  0.80323812    -0.73300
O1368       O  0.69023212  0.83709752  0.74959098    -0.73300
O1369       O  0.74618318  0.84069980  0.81179150    -0.73400
O1370       O  0.69640560  0.92777626  0.74098798    -0.73400
O1371       O  0.74497114  0.91489592  0.69546569    -0.73300
O1372       O  0.79671000  0.83097588  0.76769462    -0.73300
O1373       O  0.74140512  0.82475560  0.70674673    -0.73300
O1374       O  0.80052534  0.92101626  0.75695979    -0.73400
Ni1375     Ni  0.71935966  0.88434749  0.77794249     1.25400
Ni1376     Ni  0.77269700  0.87259450  0.73026062     1.25400
C1377       C  0.78752006  0.94050736  0.78904241     0.88900
C1378       C  0.70510955  0.81673421  0.71871584     0.88800
C1379       C  0.78085545  0.82360301  0.80214275     0.88900
C1380       C  0.71145242  0.93412159  0.70594205     0.89000
O1381       O  0.30394799  0.57933410  0.91264982    -0.73300
O1382       O  0.24123929  0.67490835  0.86190103    -0.73300
O1383       O  0.30316522  0.67159198  0.91789413    -0.73400
O1384       O  0.24180786  0.58230079  0.85699100    -0.73400
O1385       O  0.19781703  0.58048013  0.90779768    -0.73300
O1386       O  0.25862113  0.66659084  0.96820962    -0.73300
O1387       O  0.19801052  0.67115001  0.91330647    -0.73300
O1388       O  0.25829774  0.57553151  0.96215219    -0.73400
Ni1389     Ni  0.27426738  0.62713527  0.88542918     1.25400
Ni1390     Ni  0.22656394  0.62333322  0.93932705     1.25400
C1391       C  0.29180142  0.56267068  0.94612215     0.88900
C1392       C  0.20907462  0.68895642  0.88005522     0.88800
C1393       C  0.29144490  0.68272741  0.95344840     0.88900
C1394       C  0.20912661  0.56680865  0.87304548     0.89000
O1395       O  0.24584135  0.83544833  0.80318845    -0.73300
O1396       O  0.30104510  0.92163895  0.73868708    -0.73300
O1397       O  0.24338314  0.92568320  0.79707865    -0.73400
O1398       O  0.30252731  0.83121934  0.74313009    -0.73400
O1399       O  0.25582278  0.82656981  0.69513670    -0.73300
O1400       O  0.19539971  0.92113736  0.75010132    -0.73300
O1401       O  0.25473285  0.91884628  0.69033138    -0.73300
O1402       O  0.19758798  0.82963365  0.75666816    -0.73400
Ni1403     Ni  0.27492639  0.87856736  0.77181701     1.25400
Ni1404     Ni  0.22403270  0.87379076  0.72125539     1.25400
C1405       C  0.21151836  0.82009574  0.79183102     0.88900
C1406       C  0.28827905  0.93466501  0.70441164     0.88800
C1407       C  0.20860400  0.93750316  0.78320849     0.88900
C1408       C  0.28994305  0.81397638  0.71004885     0.89000
C1409       C  0.09876303  0.03305411  0.72710900    -0.12100
C1410       C  0.12188036  0.53668332  0.75506734    -0.13700
C1411       C  0.06844551  0.96201332  0.90648581    -0.12100
C1412       C  0.09346226  0.96328189  0.88006961    -0.13700
C1413       C  0.87667022  0.96938790  0.90617482    -0.12100
C1414       C  0.89986082  0.97154896  0.93429012    -0.13700
C1415       C  0.92979932  0.54277035  0.75486126    -0.12100
C1416       C  0.90409647  0.54285186  0.78058841    -0.13700
C1417       C  0.10767193  0.73438361  0.78087518    -0.12100
C1418       C  0.08320142  0.73791377  0.75415793    -0.13700
C1419       C  0.08733495  0.81389222  0.93504076    -0.12100
C1420       C  0.11277446  0.81154659  0.90883530    -0.13700
C1421       C  0.91358307  0.82057441  0.93424319    -0.12100
C1422       C  0.88720036  0.81782619  0.90937620    -0.13700
C1423       C  0.90832224  0.74583788  0.75223945    -0.12100
C1424       C  0.88421209  0.74343758  0.77966194    -0.13700
C1425       C  0.40104497  0.77998951  0.89776875    -0.12100
C1426       C  0.37786063  0.78261194  0.92592660    -0.13700
C1427       C  0.43071029  0.70841826  0.74420669    -0.12100
C1428       C  0.40508989  0.70912185  0.71847732    -0.13700
C1429       C  0.56787926  0.78732196  0.92664749    -0.12100
C1430       C  0.59220540  0.78777008  0.95357984    -0.13700
C1431       C  0.62290887  0.71176387  0.74350191    -0.12100
C1432       C  0.59986055  0.71447434  0.77171213    -0.13700
C1433       C  0.40480933  0.53648112  0.70972771    -0.12100
C1434       C  0.42926902  0.53834807  0.73642447    -0.13700
C1435       C  0.37796342  0.96129082  0.91899058    -0.12100
C1436       C  0.40129271  0.96535681  0.89106304    -0.13700
C1437       C  0.60003602  0.95551349  0.93725580    -0.12100
C1438       C  0.57350496  0.95601183  0.91235550    -0.13700
C1439       C  0.62035842  0.52892462  0.73253329    -0.12100
C1440       C  0.59706241  0.52858225  0.76058961    -0.13700
loop_ 
_geom_bond_atom_site_label_1 
_geom_bond_atom_site_label_2 
_geom_bond_distance 
_geom_bond_site_symmetry_2 
_ccdc_geom_bond_type 
O1           Ni9   1.922       .  S
O1          C731   1.280       .  A
O2           Ni9   1.920       .  S
O2           C12   1.282   1_545  A
O3           Ni9   1.926       .  S
O3           C13   1.280       .  A
O4           Ni9   1.927       .  S
O4          C734   1.283   1_545  A
O5          Ni10   1.926       .  S
O5           C14   1.280       .  A
O6          Ni10   1.918       .  S
O6          C733   1.281       .  A
O7          Ni10   1.915       .  S
O7          C732   1.278       .  A
O8          Ni10   1.909       .  S
O8           C11   1.279       .  A
Ni9        Ni730   2.393   1_545  S
Ni10       Ni729   2.393       .  S
C11         O721   1.280       .  A
C11         C954   1.430       .  S
C12         O727   1.278       .  A
C12         C958   1.435       .  S
C13         O726   1.281   1_545  A
C13         C240   1.439       .  S
C14         O724   1.283       .  A
C14         C236   1.446       .  S
C15          C19   1.521   1_554  S
C15        C1216   1.519   1_544  S
C15         C741   1.508   1_545  S
C15         C233   1.464       .  S
C16         C975   1.519       .  S
C16          H23   1.089       .  S
C16          C17   1.365       .  D
C17          C18   1.561       .  S
C17         C235   1.449       .  S
C18         C262   1.571       .  S
C18         C740   1.552       .  S
C18          H24   1.110       .  S
C19          H25   1.073       .  S
C19         C500   1.365       .  D
C20         C738   1.552   1_545  S
C20         C259   1.365       .  D
C20         C191   1.475       .  S
C21         C735   1.508       .  S
C21          H26   1.088       .  S
C21          C22   1.365       .  D
C22         C498   1.571   1_554  S
C22         C206   1.503       .  S
C27          C31   1.537       .  S
C27         C748   1.511       .  S
C27         C753   1.521       .  S
C27         C237   1.467       .  S
C28         C747   1.511   1_545  S
C28          H35   1.088       .  S
C28          C29   1.360       .  D
C29         C270   1.564       .  S
C29         C163   1.484       .  S
C30          C34   1.547       .  S
C30         C509   1.564   1_554  S
C30         C752   1.548   1_545  S
C30          H36   1.111       .  S
C31          H37   1.079       .  S
C31         C272   1.376       .  D
C32         C750   1.548       .  S
C32         C511   1.376   1_554  D
C32         C180   1.487       .  S
C33         C747   1.521       .  S
C33         H278   1.088       .  S
C33         C274   1.359   1_565  D
C34         C513   1.359   1_545  D
C34         C239   1.443       .  S
H38         C513   1.088       .  S
O39         Ni47   1.927       .  S
O39          C49   1.281       .  A
O40         Ni47   1.923       .  S
O40          C50   1.282       .  A
O41         Ni47   1.914       .  S
O41          C51   1.280       .  A
O42         Ni47   1.918       .  S
O42          C52   1.278       .  A
O43         Ni48   1.916       .  S
O43          C52   1.281       .  A
O44         Ni48   1.919       .  S
O44          C51   1.279       .  A
O45         Ni48   1.925       .  S
O45          C50   1.280       .  A
O46         Ni48   1.921       .  S
O46          C49   1.282       .  A
Ni47        Ni48   2.393       .  S
C49         C225   1.443       .  S
C50         C232   1.441       .  S
C51         C227   1.433       .  S
C52         C229   1.434       .  S
C53          C54   1.508       .  S
C53          C59   1.520   1_554  S
C53          C57   1.529       .  S
C53         C228   1.465       .  S
C54          H61   1.088       .  S
C54          C55   1.360       .  D
C55         C536   1.574   1_554  S
C55         C208   1.494       .  S
C56          C60   1.554       .  S
C56          C58   1.552       .  S
C56         C295   1.574       .  S
C56          H62   1.110       .  S
C57          H63   1.073       .  S
C57         C538   1.371   1_554  D
C58         C297   1.371       .  D
C58         C193   1.488       .  S
C59          H64   1.088       .  S
C59         C540   1.362       .  D
C60         C299   1.362       .  D
C60         C226   1.447       .  S
C65          C71   1.509       .  S
C65          C69   1.529       .  S
C65         C306   1.520       .  S
C65         C230   1.465       .  S
C66         C545   1.520   1_554  S
C66          H73   1.088       .  S
C66          C67   1.364       .  D
C67          C68   1.554       .  S
C67         C231   1.445       .  S
C68          C70   1.552       .  S
C68         C552   1.564   1_554  S
C68          H74   1.110       .  S
C69          H75   1.079       .  S
C69         C310   1.371       .  D
C70         C549   1.371       .  D
C70         C178   1.481       .  S
C71          H76   1.088       .  S
C71          C72   1.361       .  D
C72         C308   1.564       .  S
C72         C165   1.493       .  S
O77         Ni85   1.927   1_554  S
O77          C87   1.280       .  A
O78        Ni325   1.920   1_455  S
O78          C88   1.281       .  A
O79         Ni85   1.920   1_454  S
O79          C89   1.279       .  A
O80        Ni325   1.912       .  S
O80          C90   1.280       .  A
O81        Ni326   1.921       .  S
O81          C90   1.279       .  A
O82         Ni86   1.921   1_455  S
O82          C89   1.282       .  A
O83        Ni326   1.927   1_455  S
O83          C88   1.280       .  A
O84         Ni86   1.925       .  S
O84          C87   1.282       .  A
Ni85        O558   1.920   1_655  S
Ni85        O560   1.912       .  S
Ni85        Ni86   2.393   1_556  S
Ni86        O561   1.921   1_554  S
Ni86        O563   1.927   1_654  S
C87         C223   1.445       .  S
C88         C219   1.441       .  S
C89         C218   1.438       .  S
C90         C221   1.433       .  S
C91          C92   1.506       .  S
C91          C97   1.523       .  S
C91          C95   1.536       .  S
C91         C220   1.472       .  S
C92          H99   1.088       .  S
C92          C93   1.362       .  D
C93          C94   1.569       .  S
C93         C192   1.487       .  S
C94          C98   1.547       .  S
C94          C96   1.550       .  S
C94         H100   1.110       .  S
C95         H101   1.078       .  S
C95          C96   1.377       .  D
C96         C205   1.493       .  S
C97         H102   1.088       .  S
C97          C98   1.359       .  D
C98         C217   1.441       .  S
C103        C104   1.522       .  S
C103        C109   1.515       .  S
C103        C107   1.534       .  S
C103        C222   1.465       .  S
C104        H111   1.088       .  S
C104        C105   1.358       .  D
C105        C106   1.552       .  S
C105        C224   1.448       .  S
C106        C110   1.564       .  S
C106        C108   1.548       .  S
C106        H112   1.111       .  S
C107        H113   1.087       .  S
C107        C108   1.374       .  D
C108        C179   1.478       .  S
C109        H114   1.088       .  S
C109        C110   1.361       .  D
C110        C164   1.487       .  S
O115       Ni603   1.915   1_655  S
O115        C125   1.281       .  A
O116       Ni123   1.919       .  S
O116        C126   1.279       .  A
O117       Ni603   1.925       .  S
O117        C127   1.282       .  A
O118       Ni123   1.931   1_655  S
O118        C128   1.281       .  A
O119       Ni124   1.924       .  S
O119        C848   1.282   1_545  A
O120       Ni604   1.926   1_454  S
O120        C847   1.280       .  A
O121       Ni124   1.911   1_455  S
O121        C846   1.279   1_545  A
O122       Ni604   1.914   1_554  S
O122        C845   1.277       .  A
Ni123       O355   1.915   1_455  S
Ni123       O357   1.925       .  S
Ni123      Ni844   2.393   1_455  S
Ni124       O360   1.926   1_655  S
Ni124       O362   1.914       .  S
Ni124      Ni843   2.393   1_645  S
C125        O842   1.277       .  A
C125        C935   1.430       .  S
C126        O841   1.279       .  A
C126        C211   1.432       .  S
C127        O840   1.280       .  A
C127        C209   1.443       .  S
C128        O839   1.282       .  A
C128        C214   1.447       .  S
C129        C130   1.518       .  S
C129        C133   1.527       .  S
C129        C855   1.511       .  S
C129        C212   1.466       .  S
C130        H137   1.088       .  S
C130        C851   1.364       .  D
C131        C132   1.557       .  S
C131        C850   1.364       .  D
C131        C210   1.446       .  S
C132        C136   1.564       .  S
C132        C854   1.548   1_545  S
C132        H138   1.110       .  S
C133        H139   1.076       .  S
C133        C134   1.370       .  D
C134        C852   1.548       .  S
C134        C207   1.478       .  S
C135        C849   1.511   1_545  S
C135        H140   1.088       .  S
C135        C136   1.363       .  D
C136        C194   1.493       .  S
C141        C147   1.521   1_545  S
C141        C145   1.531       .  S
C141        C862   1.513   1_545  S
C141        C216   1.461       .  S
C142        C861   1.513       .  S
C142        H149   1.088       .  S
C142        C143   1.360       .  D
C143        C144   1.572       .  S
C143        C177   1.497       .  S
C144        C148   1.556       .  S
C144        C866   1.549       .  S
C144        H150   1.111       .  S
C145        H151   1.086       .  S
C145        C146   1.370       .  D
C146        C864   1.549   1_545  S
C146        C166   1.475       .  S
C147        H152   1.088       .  S
C147        C868   1.361       .  D
C148        C867   1.361       .  D
C148        C213   1.451       .  S
O153       Ni161   1.927       .  S
O153        C163   1.279       .  A
O154       Ni161   1.922       .  S
O154        C164   1.286       .  A
O155       Ni161   1.946       .  S
O155        C165   1.283       .  A
O156       Ni161   1.943       .  S
O156        C166   1.287       .  A
O157       Ni162   1.908       .  S
O157        C166   1.276       .  A
O158       Ni162   1.901       .  S
O158        C165   1.283       .  A
O159       Ni162   1.929       .  S
O159        C164   1.279       .  A
O160       Ni162   1.916       .  S
O160        C163   1.285       .  A
Ni161      Ni162   2.386       .  S
O167       Ni175   1.944       .  S
O167        C177   1.282       .  A
O168       Ni175   1.941       .  S
O168        C178   1.286       .  A
O169       Ni175   1.927       .  S
O169        C179   1.282       .  A
O170       Ni175   1.934       .  S
O170        C180   1.284       .  A
O171       Ni176   1.934       .  S
O171        C180   1.282       .  A
O172       Ni176   1.923       .  S
O172        C179   1.281       .  A
O173       Ni176   1.918       .  S
O173        C178   1.278       .  A
O174       Ni176   1.919       .  S
O174        C177   1.286       .  A
Ni175      Ni176   2.386       .  S
O181       Ni189   1.940       .  S
O181        C191   1.286       .  A
O182       Ni189   1.943       .  S
O182        C192   1.282       .  A
O183       Ni189   1.952       .  S
O183        C193   1.289       .  A
O184       Ni189   1.950       .  S
O184        C194   1.284       .  A
O185       Ni190   1.900       .  S
O185        C194   1.282       .  A
O186       Ni190   1.919       .  S
O186        C193   1.278       .  A
O187       Ni190   1.903       .  S
O187        C192   1.283       .  A
O188       Ni190   1.911       .  S
O188        C191   1.277       .  A
Ni189      Ni190   2.386       .  S
O195       Ni203   1.908       .  S
O195        C205   1.274       .  A
O196       Ni203   1.894       .  S
O196        C206   1.280       .  A
O197       Ni203   1.921       .  S
O197        C207   1.280       .  A
O198       Ni203   1.915       .  S
O198        C208   1.286       .  A
O199       Ni204   1.940       .  S
O199        C208   1.280       .  A
O200       Ni204   1.933       .  S
O200        C207   1.284       .  A
O201       Ni204   1.966       .  S
O201        C206   1.288       .  A
O202       Ni204   1.966       .  S
O202        C205   1.293       .  A
Ni203      Ni204   2.384       .  S
C209        C930   1.210       .  T
C210        C929   1.210       .  T
C211        C212   1.204       .  T
C213        C214   1.213       .  T
C215        C845   1.430       .  S
C215        C216   1.202       .  T
C217        C218   1.207       .  T
C219        C220   1.209       .  T
C221        C222   1.205       .  T
C223        C224   1.211       .  T
C225        C226   1.210       .  T
C227        C228   1.204       .  T
C229        C230   1.205       .  T
C231        C232   1.209       .  T
C233        C234   1.203       .  T
C234        C731   1.430       .  S
C235        C236   1.212       .  T
C237        C238   1.206       .  T
C238        C732   1.435       .  S
C239        C240   1.208       .  T
O241       Ni249   1.922       .  S
O241        C971   1.280       .  A
O242       Ni249   1.920       .  S
O242        C252   1.282   1_545  A
O243       Ni249   1.926       .  S
O243        C253   1.280       .  A
O244       Ni249   1.927       .  S
O244        C974   1.283   1_545  A
O245       Ni250   1.926       .  S
O245        C254   1.280       .  A
O246       Ni250   1.918       .  S
O246        C973   1.281       .  A
O247       Ni250   1.915       .  S
O247        C972   1.278       .  A
O248       Ni250   1.909       .  S
O248        C251   1.279       .  A
Ni249      Ni970   2.393   1_545  S
Ni250      Ni969   2.393       .  S
C251        O961   1.280       .  A
C251       C1194   1.430       .  S
C252        O967   1.278       .  A
C252       C1198   1.435       .  S
C253        O966   1.281   1_545  A
C253        C480   1.439       .  S
C254        O964   1.283       .  A
C254        C476   1.446       .  S
C255        C736   1.519   1_545  S
C255        C981   1.508   1_545  S
C255        C259   1.521       .  S
C255        C473   1.464       .  S
C256       C1215   1.519       .  S
C256        H263   1.089       .  S
C256        C257   1.365       .  D
C257        C258   1.561       .  S
C257        C475   1.449       .  S
C258        C502   1.571       .  S
C258        C980   1.552       .  S
C258        H264   1.110       .  S
C259        H265   1.073       .  S
C260        C978   1.552   1_545  S
C260        C499   1.365       .  D
C260        C431   1.475       .  S
C261        C975   1.508       .  S
C261        H266   1.088       .  S
C261        C262   1.365       .  D
C262        C446   1.503       .  S
C267        C988   1.511       .  S
C267        C993   1.521       .  S
C267        C271   1.537       .  S
C267        C477   1.467       .  S
C268        C987   1.511   1_545  S
C268        H275   1.088       .  S
C268        C269   1.360       .  D
C269        C510   1.564       .  S
C269        C403   1.484       .  S
C270        C274   1.547       .  S
C270        C992   1.548   1_545  S
C270        H276   1.111       .  S
C271        H277   1.079       .  S
C271        C512   1.376       .  D
C272        C990   1.548       .  S
C272        C420   1.487       .  S
C273        C987   1.521       .  S
C273        H518   1.088       .  S
C273        C514   1.359   1_565  D
C274        C479   1.443       .  S
O279       Ni287   1.927       .  S
O279        C289   1.281       .  A
O280       Ni287   1.923       .  S
O280        C290   1.282       .  A
O281       Ni287   1.914       .  S
O281        C291   1.280       .  A
O282       Ni287   1.918       .  S
O282        C292   1.278       .  A
O283       Ni288   1.916       .  S
O283        C292   1.281       .  A
O284       Ni288   1.919       .  S
O284        C291   1.279       .  A
O285       Ni288   1.925       .  S
O285        C290   1.280       .  A
O286       Ni288   1.921       .  S
O286        C289   1.282       .  A
Ni287      Ni288   2.393       .  S
C289        C465   1.443       .  S
C290        C472   1.441       .  S
C291        C467   1.433       .  S
C292        C469   1.434       .  S
C293        C294   1.508       .  S
C293        C299   1.520       .  S
C293        C297   1.529       .  S
C293        C468   1.465       .  S
C294        H301   1.088       .  S
C294        C295   1.360       .  D
C295        C448   1.494       .  S
C296        C535   1.574       .  S
C296        C300   1.554       .  S
C296        C298   1.552       .  S
C296        H302   1.110       .  S
C297        H303   1.073       .  S
C298        C537   1.371       .  D
C298        C433   1.488       .  S
C299        H304   1.088       .  S
C300        C539   1.362       .  D
C300        C466   1.447       .  S
C305        C546   1.520       .  S
C305        C311   1.509       .  S
C305        C309   1.529       .  S
C305        C470   1.465       .  S
C306        H313   1.088       .  S
C306        C307   1.364       .  D
C307        C308   1.554       .  S
C307        C471   1.445       .  S
C308        C310   1.552       .  S
C308        H314   1.110       .  S
C309        H315   1.079       .  S
C309        C550   1.371       .  D
C310        C418   1.481       .  S
C311        H316   1.088       .  S
C311        C312   1.361       .  D
C312        C548   1.564       .  S
C312        C405   1.493       .  S
O317       Ni325   1.927       .  S
O317        C327   1.280       .  A
O318       Ni565   1.920   1_455  S
O318        C328   1.281       .  A
O319       Ni325   1.920   1_455  S
O319        C329   1.279       .  A
O320       Ni565   1.912       .  S
O320        C330   1.280       .  A
O321       Ni566   1.921       .  S
O321        C330   1.279       .  A
O322       Ni326   1.921   1_455  S
O322        C329   1.282       .  A
O323       Ni566   1.927   1_455  S
O323        C328   1.280       .  A
O324       Ni326   1.925       .  S
O324        C327   1.282       .  A
Ni325      Ni326   2.393       .  S
C327        C463   1.445       .  S
C328        C459   1.441       .  S
C329        C458   1.438       .  S
C330        C461   1.433       .  S
C331        C332   1.506       .  S
C331        C337   1.523       .  S
C331        C335   1.536       .  S
C331        C460   1.472       .  S
C332        H339   1.088       .  S
C332        C333   1.362       .  D
C333        C334   1.569       .  S
C333        C432   1.487       .  S
C334        C338   1.547       .  S
C334        C336   1.550       .  S
C334        H340   1.110       .  S
C335        H341   1.078       .  S
C335        C336   1.377       .  D
C336        C445   1.493       .  S
C337        H342   1.088       .  S
C337        C338   1.359       .  D
C338        C457   1.441       .  S
C343        C344   1.522       .  S
C343        C349   1.515       .  S
C343        C347   1.534       .  S
C343        C462   1.465       .  S
C344        H351   1.088       .  S
C344        C345   1.358       .  D
C345        C346   1.552       .  S
C345        C464   1.448       .  S
C346        C350   1.564       .  S
C346        C348   1.548       .  S
C346        H352   1.111       .  S
C347        H353   1.087       .  S
C347        C348   1.374       .  D
C348        C419   1.478       .  S
C349        H354   1.088       .  S
C349        C350   1.361       .  D
C350        C404   1.487       .  S
O355        C365   1.281       .  A
O356       Ni363   1.919       .  S
O356        C366   1.279       .  A
O357        C367   1.282       .  A
O358       Ni363   1.931   1_655  S
O358        C368   1.281       .  A
O359       Ni364   1.924       .  S
O359       C1088   1.282   1_545  A
O360       C1087   1.280       .  A
O361       Ni364   1.911   1_455  S
O361       C1086   1.279   1_545  A
O362       C1085   1.277       .  A
Ni363       O595   1.915   1_455  S
Ni363       O597   1.925       .  S
Ni363     Ni1084   2.393   1_455  S
Ni364       O600   1.926   1_655  S
Ni364       O602   1.914       .  S
Ni364     Ni1083   2.393   1_645  S
C365       O1082   1.277       .  A
C365       C1175   1.430       .  S
C366       O1081   1.279       .  A
C366        C451   1.432       .  S
C367       O1080   1.280       .  A
C367        C449   1.443       .  S
C368       O1079   1.282       .  A
C368        C454   1.447       .  S
C369        C370   1.518       .  S
C369       C1095   1.511       .  S
C369        C373   1.527       .  S
C369        C452   1.466       .  S
C370        H377   1.088       .  S
C370       C1091   1.364       .  D
C371        C372   1.557       .  S
C371       C1090   1.364       .  D
C371        C450   1.446       .  S
C372        C376   1.564       .  S
C372       C1094   1.548   1_545  S
C372        H378   1.110       .  S
C373        H379   1.076       .  S
C373        C374   1.370       .  D
C374       C1092   1.548       .  S
C374        C447   1.478       .  S
C375       C1089   1.511   1_545  S
C375        H380   1.088       .  S
C375        C376   1.363       .  D
C376        C434   1.493       .  S
C381       C1102   1.513   1_545  S
C381        C387   1.521   1_545  S
C381        C385   1.531       .  S
C381        C456   1.461       .  S
C382       C1101   1.513       .  S
C382        H389   1.088       .  S
C382        C383   1.360       .  D
C383        C384   1.572       .  S
C383        C417   1.497       .  S
C384        C388   1.556       .  S
C384       C1106   1.549       .  S
C384        H390   1.111       .  S
C385        H391   1.086       .  S
C385        C386   1.370       .  D
C386       C1104   1.549   1_545  S
C386        C406   1.475       .  S
C387        H392   1.088       .  S
C387       C1108   1.361       .  D
C388       C1107   1.361       .  D
C388        C453   1.451       .  S
O393       Ni401   1.927       .  S
O393        C403   1.279       .  A
O394       Ni401   1.922       .  S
O394        C404   1.286       .  A
O395       Ni401   1.946       .  S
O395        C405   1.283       .  A
O396       Ni401   1.943       .  S
O396        C406   1.287       .  A
O397       Ni402   1.908       .  S
O397        C406   1.276       .  A
O398       Ni402   1.901       .  S
O398        C405   1.283       .  A
O399       Ni402   1.929       .  S
O399        C404   1.279       .  A
O400       Ni402   1.916       .  S
O400        C403   1.285       .  A
Ni401      Ni402   2.386       .  S
O407       Ni415   1.944       .  S
O407        C417   1.282       .  A
O408       Ni415   1.941       .  S
O408        C418   1.286       .  A
O409       Ni415   1.927       .  S
O409        C419   1.282       .  A
O410       Ni415   1.934       .  S
O410        C420   1.284       .  A
O411       Ni416   1.934       .  S
O411        C420   1.282       .  A
O412       Ni416   1.923       .  S
O412        C419   1.281       .  A
O413       Ni416   1.918       .  S
O413        C418   1.278       .  A
O414       Ni416   1.919       .  S
O414        C417   1.286       .  A
Ni415      Ni416   2.386       .  S
O421       Ni429   1.940       .  S
O421        C431   1.286       .  A
O422       Ni429   1.943       .  S
O422        C432   1.282       .  A
O423       Ni429   1.952       .  S
O423        C433   1.289       .  A
O424       Ni429   1.950       .  S
O424        C434   1.284       .  A
O425       Ni430   1.900       .  S
O425        C434   1.282       .  A
O426       Ni430   1.919       .  S
O426        C433   1.278       .  A
O427       Ni430   1.903       .  S
O427        C432   1.283       .  A
O428       Ni430   1.911       .  S
O428        C431   1.277       .  A
Ni429      Ni430   2.386       .  S
O435       Ni443   1.908       .  S
O435        C445   1.274       .  A
O436       Ni443   1.894       .  S
O436        C446   1.280       .  A
O437       Ni443   1.921       .  S
O437        C447   1.280       .  A
O438       Ni443   1.915       .  S
O438        C448   1.286       .  A
O439       Ni444   1.940       .  S
O439        C448   1.280       .  A
O440       Ni444   1.933       .  S
O440        C447   1.284       .  A
O441       Ni444   1.966       .  S
O441        C446   1.288       .  A
O442       Ni444   1.966       .  S
O442        C445   1.293       .  A
Ni443      Ni444   2.384       .  S
C449       C1170   1.210       .  T
C450       C1169   1.210       .  T
C451        C452   1.204       .  T
C453        C454   1.213       .  T
C455       C1085   1.430       .  S
C455        C456   1.202       .  T
C457        C458   1.207       .  T
C459        C460   1.209       .  T
C461        C462   1.205       .  T
C463        C464   1.211       .  T
C465        C466   1.210       .  T
C467        C468   1.204       .  T
C469        C470   1.205       .  T
C471        C472   1.209       .  T
C473        C474   1.203       .  T
C474        C971   1.430       .  S
C475        C476   1.212       .  T
C477        C478   1.206       .  T
C478        C972   1.435       .  S
C479        C480   1.208       .  T
O481       Ni489   1.922       .  S
O481       C1211   1.280       .  A
O482       Ni489   1.920       .  S
O482        C492   1.282   1_545  A
O483       Ni489   1.926       .  S
O483        C493   1.280       .  A
O484       Ni489   1.927       .  S
O484       C1214   1.283   1_545  A
O485       Ni490   1.926       .  S
O485        C494   1.280       .  A
O486       Ni490   1.918       .  S
O486       C1213   1.281       .  A
O487       Ni490   1.915       .  S
O487       C1212   1.278       .  A
O488       Ni490   1.909       .  S
O488        C491   1.279       .  A
Ni489     Ni1210   2.393   1_545  S
Ni490     Ni1209   2.393       .  S
C491       O1201   1.280       .  A
C491       C1434   1.430       .  S
C492       O1207   1.278       .  A
C492       C1438   1.435       .  S
C493       O1206   1.281   1_545  A
C493        C720   1.439       .  S
C494       O1204   1.283       .  A
C494        C716   1.446       .  S
C495        C976   1.519   1_545  S
C495       C1221   1.508   1_545  S
C495        C499   1.521       .  S
C495        C713   1.464       .  S
C496        C735   1.519   1_556  S
C496        H503   1.089       .  S
C496        C497   1.365       .  D
C497        C498   1.561       .  S
C497        C715   1.449       .  S
C498       C1220   1.552       .  S
C498        H504   1.110       .  S
C499        H505   1.073       .  S
C500       C1218   1.552   1_545  S
C500        C671   1.475       .  S
C501       C1215   1.508       .  S
C501        H506   1.088       .  S
C501        C502   1.365       .  D
C502        C686   1.503       .  S
C507       C1228   1.511       .  S
C507       C1233   1.521   1_556  S
C507        C511   1.537       .  S
C507        C717   1.467       .  S
C508       C1227   1.511   1_545  S
C508        H515   1.088       .  S
C508        C509   1.360       .  D
C509        C643   1.484       .  S
C510        C514   1.547       .  S
C510       C1232   1.548   1_545  S
C510        H516   1.111       .  S
C511        H517   1.079       .  S
C512       C1230   1.548       .  S
C512        C660   1.487       .  S
C513       C1227   1.521   1_554  S
C514        C719   1.443       .  S
O519       Ni527   1.927       .  S
O519        C529   1.281       .  A
O520       Ni527   1.923       .  S
O520        C530   1.282       .  A
O521       Ni527   1.914       .  S
O521        C531   1.280       .  A
O522       Ni527   1.918       .  S
O522        C532   1.278       .  A
O523       Ni528   1.916       .  S
O523        C532   1.281       .  A
O524       Ni528   1.919       .  S
O524        C531   1.279       .  A
O525       Ni528   1.925       .  S
O525        C530   1.280       .  A
O526       Ni528   1.921       .  S
O526        C529   1.282       .  A
Ni527      Ni528   2.393       .  S
C529        C705   1.443       .  S
C530        C712   1.441       .  S
C531        C707   1.433       .  S
C532        C709   1.434       .  S
C533        C534   1.508       .  S
C533        C539   1.520       .  S
C533        C537   1.529       .  S
C533        C708   1.465       .  S
C534        H541   1.088       .  S
C534        C535   1.360       .  D
C535        C688   1.494       .  S
C536        C540   1.554       .  S
C536        C538   1.552       .  S
C536        H542   1.110       .  S
C537        H543   1.073       .  S
C538        C673   1.488       .  S
C539        H544   1.088       .  S
C540        C706   1.447       .  S
C545        C551   1.509       .  S
C545        C549   1.529   1_556  S
C545        C710   1.465       .  S
C546        H553   1.088       .  S
C546        C547   1.364       .  D
C547        C548   1.554       .  S
C547        C711   1.445       .  S
C548        C550   1.552       .  S
C548        H554   1.110       .  S
C549        H555   1.079       .  S
C550        C658   1.481       .  S
C551        H556   1.088       .  S
C551        C552   1.361       .  D
C552        C645   1.493       .  S
O557       Ni565   1.927       .  S
O557        C567   1.280       .  A
O558        C568   1.281       .  A
O559       Ni565   1.920   1_455  S
O559        C569   1.279       .  A
O560        C570   1.280       .  A
O561        C570   1.279       .  A
O562       Ni566   1.921   1_455  S
O562        C569   1.282       .  A
O563        C568   1.280       .  A
O564       Ni566   1.925       .  S
O564        C567   1.282       .  A
Ni565      Ni566   2.393       .  S
C567        C703   1.445       .  S
C568        C699   1.441       .  S
C569        C698   1.438       .  S
C570        C701   1.433       .  S
C571        C572   1.506       .  S
C571        C577   1.523       .  S
C571        C575   1.536       .  S
C571        C700   1.472       .  S
C572        H579   1.088       .  S
C572        C573   1.362       .  D
C573        C574   1.569       .  S
C573        C672   1.487       .  S
C574        C578   1.547       .  S
C574        C576   1.550       .  S
C574        H580   1.110       .  S
C575        H581   1.078       .  S
C575        C576   1.377       .  D
C576        C685   1.493       .  S
C577        H582   1.088       .  S
C577        C578   1.359       .  D
C578        C697   1.441       .  S
C583        C584   1.522       .  S
C583        C589   1.515       .  S
C583        C587   1.534       .  S
C583        C702   1.465       .  S
C584        H591   1.088       .  S
C584        C585   1.358       .  D
C585        C586   1.552       .  S
C585        C704   1.448       .  S
C586        C590   1.564       .  S
C586        C588   1.548       .  S
C586        H592   1.111       .  S
C587        H593   1.087       .  S
C587        C588   1.374       .  D
C588        C659   1.478       .  S
C589        H594   1.088       .  S
C589        C590   1.361       .  D
C590        C644   1.487       .  S
O595        C605   1.281       .  A
O596       Ni603   1.919   1_556  S
O596        C606   1.279       .  A
O597        C607   1.282       .  A
O598       Ni603   1.931   1_656  S
O598        C608   1.281       .  A
O599       Ni604   1.924       .  S
O599       C1328   1.282   1_545  A
O600       C1327   1.280       .  A
O601       Ni604   1.911   1_455  S
O601       C1326   1.279   1_545  A
O602       C1325   1.277       .  A
Ni603     Ni1324   2.393   1_454  S
Ni604     Ni1323   2.393   1_646  S
C605       O1322   1.277       .  A
C605       C1415   1.430       .  S
C606       O1321   1.279       .  A
C606        C691   1.432       .  S
C607       O1320   1.280       .  A
C607        C689   1.443       .  S
C608       O1319   1.282       .  A
C608        C694   1.447       .  S
C609        C610   1.518       .  S
C609       C1335   1.511       .  S
C609        C613   1.527       .  S
C609        C692   1.466       .  S
C610        H617   1.088       .  S
C610       C1331   1.364       .  D
C611        C612   1.557       .  S
C611       C1330   1.364       .  D
C611        C690   1.446       .  S
C612        C616   1.564       .  S
C612       C1334   1.548   1_545  S
C612        H618   1.110       .  S
C613        H619   1.076       .  S
C613        C614   1.370       .  D
C614       C1332   1.548       .  S
C614        C687   1.478       .  S
C615       C1329   1.511   1_545  S
C615        H620   1.088       .  S
C615        C616   1.363       .  D
C616        C674   1.493       .  S
C621       C1342   1.513   1_545  S
C621        C627   1.521   1_545  S
C621        C625   1.531       .  S
C621        C696   1.461       .  S
C622       C1341   1.513       .  S
C622        H629   1.088       .  S
C622        C623   1.360       .  D
C623        C624   1.572       .  S
C623        C657   1.497       .  S
C624        C628   1.556       .  S
C624       C1346   1.549       .  S
C624        H630   1.111       .  S
C625        H631   1.086       .  S
C625        C626   1.370       .  D
C626       C1344   1.549   1_545  S
C626        C646   1.475       .  S
C627        H632   1.088       .  S
C627       C1348   1.361       .  D
C628       C1347   1.361       .  D
C628        C693   1.451       .  S
O633       Ni641   1.927       .  S
O633        C643   1.279       .  A
O634       Ni641   1.922       .  S
O634        C644   1.286       .  A
O635       Ni641   1.946       .  S
O635        C645   1.283       .  A
O636       Ni641   1.943       .  S
O636        C646   1.287       .  A
O637       Ni642   1.908       .  S
O637        C646   1.276       .  A
O638       Ni642   1.901       .  S
O638        C645   1.283       .  A
O639       Ni642   1.929       .  S
O639        C644   1.279       .  A
O640       Ni642   1.916       .  S
O640        C643   1.285       .  A
Ni641      Ni642   2.386       .  S
O647       Ni655   1.944       .  S
O647        C657   1.282       .  A
O648       Ni655   1.941       .  S
O648        C658   1.286       .  A
O649       Ni655   1.927       .  S
O649        C659   1.282       .  A
O650       Ni655   1.934       .  S
O650        C660   1.284       .  A
O651       Ni656   1.934       .  S
O651        C660   1.282       .  A
O652       Ni656   1.923       .  S
O652        C659   1.281       .  A
O653       Ni656   1.918       .  S
O653        C658   1.278       .  A
O654       Ni656   1.919       .  S
O654        C657   1.286       .  A
Ni655      Ni656   2.386       .  S
O661       Ni669   1.940       .  S
O661        C671   1.286       .  A
O662       Ni669   1.943       .  S
O662        C672   1.282       .  A
O663       Ni669   1.952       .  S
O663        C673   1.289       .  A
O664       Ni669   1.950       .  S
O664        C674   1.284       .  A
O665       Ni670   1.900       .  S
O665        C674   1.282       .  A
O666       Ni670   1.919       .  S
O666        C673   1.278       .  A
O667       Ni670   1.903       .  S
O667        C672   1.283       .  A
O668       Ni670   1.911       .  S
O668        C671   1.277       .  A
Ni669      Ni670   2.386       .  S
O675       Ni683   1.908       .  S
O675        C685   1.274       .  A
O676       Ni683   1.894       .  S
O676        C686   1.280       .  A
O677       Ni683   1.921       .  S
O677        C687   1.280       .  A
O678       Ni683   1.915       .  S
O678        C688   1.286       .  A
O679       Ni684   1.940       .  S
O679        C688   1.280       .  A
O680       Ni684   1.933       .  S
O680        C687   1.284       .  A
O681       Ni684   1.966       .  S
O681        C686   1.288       .  A
O682       Ni684   1.966       .  S
O682        C685   1.293       .  A
Ni683      Ni684   2.384       .  S
C689       C1410   1.210       .  T
C690       C1409   1.210       .  T
C691        C692   1.204       .  T
C693        C694   1.213       .  T
C695       C1325   1.430       .  S
C695        C696   1.202       .  T
C697        C698   1.207       .  T
C699        C700   1.209       .  T
C701        C702   1.205       .  T
C703        C704   1.211       .  T
C705        C706   1.210       .  T
C707        C708   1.204       .  T
C709        C710   1.205       .  T
C711        C712   1.209       .  T
C713        C714   1.203       .  T
C714       C1211   1.430       .  S
C715        C716   1.212       .  T
C717        C718   1.206       .  T
C718       C1212   1.435       .  S
C719        C720   1.208       .  T
O721       Ni729   1.922       .  S
O722       Ni729   1.920       .  S
O722        C732   1.282       .  A
O723       Ni729   1.926       .  S
O723        C733   1.280       .  A
O724       Ni729   1.927       .  S
O725       Ni730   1.926       .  S
O725        C734   1.280       .  A
O726       Ni730   1.918       .  S
O727       Ni730   1.915       .  S
O728       Ni730   1.909       .  S
O728        C731   1.279   1_565  A
C733        C960   1.439       .  S
C734        C956   1.446       .  S
C735        C739   1.521   1_554  S
C735        C953   1.464       .  S
C736        H743   1.089       .  S
C736        C737   1.365       .  D
C737        C738   1.561       .  S
C737        C955   1.449       .  S
C738        C982   1.571       .  S
C738        H744   1.110       .  S
C739        H745   1.073       .  S
C739       C1220   1.365       .  D
C740        C979   1.365       .  D
C740        C911   1.475       .  S
C741        H746   1.088       .  S
C741        C742   1.365       .  D
C742       C1218   1.571   1_554  S
C742        C926   1.503       .  S
C747        C751   1.537       .  S
C747        C957   1.467       .  S
C748        H755   1.088       .  S
C748        C749   1.360       .  D
C749        C990   1.564       .  S
C749        C883   1.484       .  S
C750       C1229   1.564   1_554  S
C750        C754   1.547       .  S
C750        H756   1.111       .  S
C751        H757   1.079       .  S
C751        C992   1.376       .  D
C752       C1231   1.376   1_554  D
C752        C900   1.487       .  S
C753        H998   1.088       .  S
C753        C994   1.359       .  D
C754       C1233   1.359       .  D
C754        C959   1.443       .  S
H758       C1233   1.088       .  S
O759       Ni767   1.927       .  S
O759        C769   1.281       .  A
O760       Ni767   1.923       .  S
O760        C770   1.282       .  A
O761       Ni767   1.914       .  S
O761        C771   1.280       .  A
O762       Ni767   1.918       .  S
O762        C772   1.278       .  A
O763       Ni768   1.916       .  S
O763        C772   1.281       .  A
O764       Ni768   1.919       .  S
O764        C771   1.279       .  A
O765       Ni768   1.925       .  S
O765        C770   1.280       .  A
O766       Ni768   1.921       .  S
O766        C769   1.282       .  A
Ni767      Ni768   2.393       .  S
C769        C945   1.443       .  S
C770        C952   1.441       .  S
C771        C947   1.433       .  S
C772        C949   1.434       .  S
C773        C774   1.508       .  S
C773        C779   1.520   1_554  S
C773        C777   1.529       .  S
C773        C948   1.465       .  S
C774        H781   1.088       .  S
C774        C775   1.360       .  D
C775       C1256   1.574   1_554  S
C775        C928   1.494       .  S
C776       C1015   1.574       .  S
C776        C780   1.554       .  S
C776        C778   1.552       .  S
C776        H782   1.110       .  S
C777        H783   1.073       .  S
C777       C1258   1.371   1_554  D
C778       C1017   1.371       .  D
C778        C913   1.488       .  S
C779        H784   1.088       .  S
C779       C1260   1.362       .  D
C780       C1019   1.362       .  D
C780        C946   1.447       .  S
C785       C1026   1.520       .  S
C785        C791   1.509       .  S
C785        C789   1.529       .  S
C785        C950   1.465       .  S
C786       C1265   1.520   1_554  S
C786        H793   1.088       .  S
C786        C787   1.364       .  D
C787        C788   1.554       .  S
C787        C951   1.445       .  S
C788       C1272   1.564   1_554  S
C788        C790   1.552       .  S
C788        H794   1.110       .  S
C789        H795   1.079       .  S
C789       C1030   1.371       .  D
C790       C1269   1.371       .  D
C790        C898   1.481       .  S
C791        H796   1.088       .  S
C791        C792   1.361       .  D
C792       C1028   1.564       .  S
C792        C885   1.493       .  S
O797       Ni805   1.927   1_554  S
O797        C807   1.280       .  A
O798      Ni1045   1.920   1_455  S
O798        C808   1.281       .  A
O799       Ni805   1.920   1_454  S
O799        C809   1.279       .  A
O800      Ni1045   1.912       .  S
O800        C810   1.280       .  A
O801      Ni1046   1.921       .  S
O801        C810   1.279       .  A
O802       Ni806   1.921   1_455  S
O802        C809   1.282       .  A
O803      Ni1046   1.927   1_455  S
O803        C808   1.280       .  A
O804       Ni806   1.925       .  S
O804        C807   1.282       .  A
Ni805      O1278   1.920   1_655  S
Ni805      O1280   1.912       .  S
Ni805      Ni806   2.393   1_556  S
Ni806      O1281   1.921   1_554  S
Ni806      O1283   1.927   1_654  S
C807        C943   1.445       .  S
C808        C939   1.441       .  S
C809        C938   1.438       .  S
C810        C941   1.433       .  S
C811        C812   1.506       .  S
C811        C817   1.523       .  S
C811        C815   1.536       .  S
C811        C940   1.472       .  S
C812        H819   1.088       .  S
C812        C813   1.362       .  D
C813        C814   1.569       .  S
C813        C912   1.487       .  S
C814        C818   1.547       .  S
C814        C816   1.550       .  S
C814        H820   1.110       .  S
C815        H821   1.078       .  S
C815        C816   1.377       .  D
C816        C925   1.493       .  S
C817        H822   1.088       .  S
C817        C818   1.359       .  D
C818        C937   1.441       .  S
C823        C824   1.522       .  S
C823        C829   1.515       .  S
C823        C827   1.534       .  S
C823        C942   1.465       .  S
C824        H831   1.088       .  S
C824        C825   1.358       .  D
C825        C826   1.552       .  S
C825        C944   1.448       .  S
C826        C830   1.564       .  S
C826        C828   1.548       .  S
C826        H832   1.111       .  S
C827        H833   1.087       .  S
C827        C828   1.374       .  D
C828        C899   1.478       .  S
C829        H834   1.088       .  S
C829        C830   1.361       .  D
C830        C884   1.487       .  S
O835      Ni1323   1.915   1_655  S
O835        C845   1.281   1_565  A
O836       Ni843   1.919       .  S
O836        C846   1.279       .  A
O837      Ni1323   1.925       .  S
O837        C847   1.282   1_565  A
O838       Ni843   1.931   1_655  S
O838        C848   1.281       .  A
O839       Ni844   1.924       .  S
O840      Ni1324   1.926   1_454  S
O841       Ni844   1.911   1_455  S
O842      Ni1324   1.914   1_554  S
Ni843      O1075   1.915   1_455  S
Ni843      O1077   1.925       .  S
Ni844      O1080   1.926   1_655  S
Ni844      O1082   1.914       .  S
C846        C931   1.432       .  S
C847        C929   1.443       .  S
C848        C934   1.447       .  S
C849        C850   1.518   1_565  S
C849        C853   1.527       .  S
C849        C932   1.466       .  S
C850        H857   1.088       .  S
C851        C852   1.557       .  S
C851        C930   1.446       .  S
C852        C856   1.564       .  S
C852        H858   1.110       .  S
C853        H859   1.076       .  S
C853        C854   1.370       .  D
C854        C927   1.478       .  S
C855        H860   1.088       .  S
C855        C856   1.363       .  D
C856        C914   1.493       .  S
C861        C867   1.521       .  S
C861        C865   1.531       .  S
C861        C936   1.461       .  S
C862        H869   1.088       .  S
C862        C863   1.360       .  D
C863        C864   1.572       .  S
C863        C897   1.497       .  S
C864        C868   1.556       .  S
C864        H870   1.111       .  S
C865        H871   1.086       .  S
C865        C866   1.370       .  D
C866        C886   1.475       .  S
C867        H872   1.088       .  S
C868        C933   1.451       .  S
O873       Ni881   1.927       .  S
O873        C883   1.279       .  A
O874       Ni881   1.922       .  S
O874        C884   1.286       .  A
O875       Ni881   1.946       .  S
O875        C885   1.283       .  A
O876       Ni881   1.943       .  S
O876        C886   1.287       .  A
O877       Ni882   1.908       .  S
O877        C886   1.276       .  A
O878       Ni882   1.901       .  S
O878        C885   1.283       .  A
O879       Ni882   1.929       .  S
O879        C884   1.279       .  A
O880       Ni882   1.916       .  S
O880        C883   1.285       .  A
Ni881      Ni882   2.386       .  S
O887       Ni895   1.944       .  S
O887        C897   1.282       .  A
O888       Ni895   1.941       .  S
O888        C898   1.286       .  A
O889       Ni895   1.927       .  S
O889        C899   1.282       .  A
O890       Ni895   1.934       .  S
O890        C900   1.284       .  A
O891       Ni896   1.934       .  S
O891        C900   1.282       .  A
O892       Ni896   1.923       .  S
O892        C899   1.281       .  A
O893       Ni896   1.918       .  S
O893        C898   1.278       .  A
O894       Ni896   1.919       .  S
O894        C897   1.286       .  A
Ni895      Ni896   2.386       .  S
O901       Ni909   1.940       .  S
O901        C911   1.286       .  A
O902       Ni909   1.943       .  S
O902        C912   1.282       .  A
O903       Ni909   1.952       .  S
O903        C913   1.289       .  A
O904       Ni909   1.950       .  S
O904        C914   1.284       .  A
O905       Ni910   1.900       .  S
O905        C914   1.282       .  A
O906       Ni910   1.919       .  S
O906        C913   1.278       .  A
O907       Ni910   1.903       .  S
O907        C912   1.283       .  A
O908       Ni910   1.911       .  S
O908        C911   1.277       .  A
Ni909      Ni910   2.386       .  S
O915       Ni923   1.908       .  S
O915        C925   1.274       .  A
O916       Ni923   1.894       .  S
O916        C926   1.280       .  A
O917       Ni923   1.921       .  S
O917        C927   1.280       .  A
O918       Ni923   1.915       .  S
O918        C928   1.286       .  A
O919       Ni924   1.940       .  S
O919        C928   1.280       .  A
O920       Ni924   1.933       .  S
O920        C927   1.284       .  A
O921       Ni924   1.966       .  S
O921        C926   1.288       .  A
O922       Ni924   1.966       .  S
O922        C925   1.293       .  A
Ni923      Ni924   2.384       .  S
C931        C932   1.204       .  T
C933        C934   1.213       .  T
C935        C936   1.202       .  T
C937        C938   1.207       .  T
C939        C940   1.209       .  T
C941        C942   1.205       .  T
C943        C944   1.211       .  T
C945        C946   1.210       .  T
C947        C948   1.204       .  T
C949        C950   1.205       .  T
C951        C952   1.209       .  T
C953        C954   1.203       .  T
C955        C956   1.212       .  T
C957        C958   1.206       .  T
C959        C960   1.208       .  T
O961       Ni969   1.922       .  S
O962       Ni969   1.920       .  S
O962        C972   1.282       .  A
O963       Ni969   1.926       .  S
O963        C973   1.280       .  A
O964       Ni969   1.927       .  S
O965       Ni970   1.926       .  S
O965        C974   1.280       .  A
O966       Ni970   1.918       .  S
O967       Ni970   1.915       .  S
O968       Ni970   1.909       .  S
O968        C971   1.279   1_565  A
C973       C1200   1.439       .  S
C974       C1196   1.446       .  S
C975        C979   1.521       .  S
C975       C1193   1.464       .  S
C976        H983   1.089       .  S
C976        C977   1.365       .  D
C977        C978   1.561       .  S
C977       C1195   1.449       .  S
C978       C1222   1.571       .  S
C978        H984   1.110       .  S
C979        H985   1.073       .  S
C980       C1219   1.365       .  D
C980       C1151   1.475       .  S
C981        H986   1.088       .  S
C981        C982   1.365       .  D
C982       C1166   1.503       .  S
C987        C991   1.537       .  S
C987       C1197   1.467       .  S
C988        H995   1.088       .  S
C988        C989   1.360       .  D
C989       C1230   1.564       .  S
C989       C1123   1.484       .  S
C990        C994   1.547       .  S
C990        H996   1.111       .  S
C991        H997   1.079       .  S
C991       C1232   1.376       .  D
C992       C1140   1.487       .  S
C993       H1238   1.088       .  S
C993       C1234   1.359       .  D
C994       C1199   1.443       .  S
O999      Ni1007   1.927       .  S
O999       C1009   1.281       .  A
O1000     Ni1007   1.923       .  S
O1000      C1010   1.282       .  A
O1001     Ni1007   1.914       .  S
O1001      C1011   1.280       .  A
O1002     Ni1007   1.918       .  S
O1002      C1012   1.278       .  A
O1003     Ni1008   1.916       .  S
O1003      C1012   1.281       .  A
O1004     Ni1008   1.919       .  S
O1004      C1011   1.279       .  A
O1005     Ni1008   1.925       .  S
O1005      C1010   1.280       .  A
O1006     Ni1008   1.921       .  S
O1006      C1009   1.282       .  A
Ni1007    Ni1008   2.393       .  S
C1009      C1185   1.443       .  S
C1010      C1192   1.441       .  S
C1011      C1187   1.433       .  S
C1012      C1189   1.434       .  S
C1013      C1014   1.508       .  S
C1013      C1019   1.520       .  S
C1013      C1017   1.529       .  S
C1013      C1188   1.465       .  S
C1014      H1021   1.088       .  S
C1014      C1015   1.360       .  D
C1015      C1168   1.494       .  S
C1016      C1255   1.574       .  S
C1016      C1020   1.554       .  S
C1016      C1018   1.552       .  S
C1016      H1022   1.110       .  S
C1017      H1023   1.073       .  S
C1018      C1257   1.371       .  D
C1018      C1153   1.488       .  S
C1019      H1024   1.088       .  S
C1020      C1259   1.362       .  D
C1020      C1186   1.447       .  S
C1025      C1266   1.520       .  S
C1025      C1031   1.509       .  S
C1025      C1029   1.529       .  S
C1025      C1190   1.465       .  S
C1026      H1033   1.088       .  S
C1026      C1027   1.364       .  D
C1027      C1028   1.554       .  S
C1027      C1191   1.445       .  S
C1028      C1030   1.552       .  S
C1028      H1034   1.110       .  S
C1029      H1035   1.079       .  S
C1029      C1270   1.371       .  D
C1030      C1138   1.481       .  S
C1031      H1036   1.088       .  S
C1031      C1032   1.361       .  D
C1032      C1268   1.564       .  S
C1032      C1125   1.493       .  S
O1037     Ni1045   1.927       .  S
O1037      C1047   1.280       .  A
O1038     Ni1285   1.920   1_455  S
O1038      C1048   1.281       .  A
O1039     Ni1045   1.920   1_455  S
O1039      C1049   1.279       .  A
O1040     Ni1285   1.912       .  S
O1040      C1050   1.280       .  A
O1041     Ni1286   1.921       .  S
O1041      C1050   1.279       .  A
O1042     Ni1046   1.921   1_455  S
O1042      C1049   1.282       .  A
O1043     Ni1286   1.927   1_455  S
O1043      C1048   1.280       .  A
O1044     Ni1046   1.925       .  S
O1044      C1047   1.282       .  A
Ni1045    Ni1046   2.393       .  S
C1047      C1183   1.445       .  S
C1048      C1179   1.441       .  S
C1049      C1178   1.438       .  S
C1050      C1181   1.433       .  S
C1051      C1052   1.506       .  S
C1051      C1057   1.523       .  S
C1051      C1055   1.536       .  S
C1051      C1180   1.472       .  S
C1052      H1059   1.088       .  S
C1052      C1053   1.362       .  D
C1053      C1054   1.569       .  S
C1053      C1152   1.487       .  S
C1054      C1058   1.547       .  S
C1054      C1056   1.550       .  S
C1054      H1060   1.110       .  S
C1055      H1061   1.078       .  S
C1055      C1056   1.377       .  D
C1056      C1165   1.493       .  S
C1057      H1062   1.088       .  S
C1057      C1058   1.359       .  D
C1058      C1177   1.441       .  S
C1063      C1064   1.522       .  S
C1063      C1069   1.515       .  S
C1063      C1067   1.534       .  S
C1063      C1182   1.465       .  S
C1064      H1071   1.088       .  S
C1064      C1065   1.358       .  D
C1065      C1066   1.552       .  S
C1065      C1184   1.448       .  S
C1066      C1070   1.564       .  S
C1066      C1068   1.548       .  S
C1066      H1072   1.111       .  S
C1067      H1073   1.087       .  S
C1067      C1068   1.374       .  D
C1068      C1139   1.478       .  S
C1069      H1074   1.088       .  S
C1069      C1070   1.361       .  D
C1070      C1124   1.487       .  S
O1075      C1085   1.281   1_565  A
O1076     Ni1083   1.919       .  S
O1076      C1086   1.279       .  A
O1077      C1087   1.282   1_565  A
O1078     Ni1083   1.931   1_655  S
O1078      C1088   1.281       .  A
O1079     Ni1084   1.924       .  S
O1081     Ni1084   1.911   1_455  S
Ni1083     O1315   1.915   1_455  S
Ni1083     O1317   1.925       .  S
Ni1084     O1320   1.926   1_655  S
Ni1084     O1322   1.914       .  S
C1086      C1171   1.432       .  S
C1087      C1169   1.443       .  S
C1088      C1174   1.447       .  S
C1089      C1090   1.518   1_565  S
C1089      C1093   1.527       .  S
C1089      C1172   1.466       .  S
C1090      H1097   1.088       .  S
C1091      C1092   1.557       .  S
C1091      C1170   1.446       .  S
C1092      C1096   1.564       .  S
C1092      H1098   1.110       .  S
C1093      H1099   1.076       .  S
C1093      C1094   1.370       .  D
C1094      C1167   1.478       .  S
C1095      H1100   1.088       .  S
C1095      C1096   1.363       .  D
C1096      C1154   1.493       .  S
C1101      C1107   1.521       .  S
C1101      C1105   1.531       .  S
C1101      C1176   1.461       .  S
C1102      H1109   1.088       .  S
C1102      C1103   1.360       .  D
C1103      C1104   1.572       .  S
C1103      C1137   1.497       .  S
C1104      C1108   1.556       .  S
C1104      H1110   1.111       .  S
C1105      H1111   1.086       .  S
C1105      C1106   1.370       .  D
C1106      C1126   1.475       .  S
C1107      H1112   1.088       .  S
C1108      C1173   1.451       .  S
O1113     Ni1121   1.927       .  S
O1113      C1123   1.279       .  A
O1114     Ni1121   1.922       .  S
O1114      C1124   1.286       .  A
O1115     Ni1121   1.946       .  S
O1115      C1125   1.283       .  A
O1116     Ni1121   1.943       .  S
O1116      C1126   1.287       .  A
O1117     Ni1122   1.908       .  S
O1117      C1126   1.276       .  A
O1118     Ni1122   1.901       .  S
O1118      C1125   1.283       .  A
O1119     Ni1122   1.929       .  S
O1119      C1124   1.279       .  A
O1120     Ni1122   1.916       .  S
O1120      C1123   1.285       .  A
Ni1121    Ni1122   2.386       .  S
O1127     Ni1135   1.944       .  S
O1127      C1137   1.282       .  A
O1128     Ni1135   1.941       .  S
O1128      C1138   1.286       .  A
O1129     Ni1135   1.927       .  S
O1129      C1139   1.282       .  A
O1130     Ni1135   1.934       .  S
O1130      C1140   1.284       .  A
O1131     Ni1136   1.934       .  S
O1131      C1140   1.282       .  A
O1132     Ni1136   1.923       .  S
O1132      C1139   1.281       .  A
O1133     Ni1136   1.918       .  S
O1133      C1138   1.278       .  A
O1134     Ni1136   1.919       .  S
O1134      C1137   1.286       .  A
Ni1135    Ni1136   2.386       .  S
O1141     Ni1149   1.940       .  S
O1141      C1151   1.286       .  A
O1142     Ni1149   1.943       .  S
O1142      C1152   1.282       .  A
O1143     Ni1149   1.952       .  S
O1143      C1153   1.289       .  A
O1144     Ni1149   1.950       .  S
O1144      C1154   1.284       .  A
O1145     Ni1150   1.900       .  S
O1145      C1154   1.282       .  A
O1146     Ni1150   1.919       .  S
O1146      C1153   1.278       .  A
O1147     Ni1150   1.903       .  S
O1147      C1152   1.283       .  A
O1148     Ni1150   1.911       .  S
O1148      C1151   1.277       .  A
Ni1149    Ni1150   2.386       .  S
O1155     Ni1163   1.908       .  S
O1155      C1165   1.274       .  A
O1156     Ni1163   1.894       .  S
O1156      C1166   1.280       .  A
O1157     Ni1163   1.921       .  S
O1157      C1167   1.280       .  A
O1158     Ni1163   1.915       .  S
O1158      C1168   1.286       .  A
O1159     Ni1164   1.940       .  S
O1159      C1168   1.280       .  A
O1160     Ni1164   1.933       .  S
O1160      C1167   1.284       .  A
O1161     Ni1164   1.966       .  S
O1161      C1166   1.288       .  A
O1162     Ni1164   1.966       .  S
O1162      C1165   1.293       .  A
Ni1163    Ni1164   2.384       .  S
C1171      C1172   1.204       .  T
C1173      C1174   1.213       .  T
C1175      C1176   1.202       .  T
C1177      C1178   1.207       .  T
C1179      C1180   1.209       .  T
C1181      C1182   1.205       .  T
C1183      C1184   1.211       .  T
C1185      C1186   1.210       .  T
C1187      C1188   1.204       .  T
C1189      C1190   1.205       .  T
C1191      C1192   1.209       .  T
C1193      C1194   1.203       .  T
C1195      C1196   1.212       .  T
C1197      C1198   1.206       .  T
C1199      C1200   1.208       .  T
O1201     Ni1209   1.922       .  S
O1202     Ni1209   1.920       .  S
O1202      C1212   1.282       .  A
O1203     Ni1209   1.926       .  S
O1203      C1213   1.280       .  A
O1204     Ni1209   1.927       .  S
O1205     Ni1210   1.926       .  S
O1205      C1214   1.280       .  A
O1206     Ni1210   1.918       .  S
O1207     Ni1210   1.915       .  S
O1208     Ni1210   1.909       .  S
O1208      C1211   1.279   1_565  A
C1213      C1440   1.439       .  S
C1214      C1436   1.446       .  S
C1215      C1219   1.521       .  S
C1215      C1433   1.464       .  S
C1216      H1223   1.089       .  S
C1216      C1217   1.365       .  D
C1217      C1218   1.561       .  S
C1217      C1435   1.449       .  S
C1218      H1224   1.110       .  S
C1219      H1225   1.073       .  S
C1220      C1391   1.475       .  S
C1221      H1226   1.088       .  S
C1221      C1222   1.365       .  D
C1222      C1406   1.503       .  S
C1227      C1231   1.537       .  S
C1227      C1437   1.467       .  S
C1228      H1235   1.088       .  S
C1228      C1229   1.360       .  D
C1229      C1363   1.484       .  S
C1230      C1234   1.547       .  S
C1230      H1236   1.111       .  S
C1231      H1237   1.079       .  S
C1232      C1380   1.487       .  S
C1234      C1439   1.443       .  S
O1239     Ni1247   1.927       .  S
O1239      C1249   1.281       .  A
O1240     Ni1247   1.923       .  S
O1240      C1250   1.282       .  A
O1241     Ni1247   1.914       .  S
O1241      C1251   1.280       .  A
O1242     Ni1247   1.918       .  S
O1242      C1252   1.278       .  A
O1243     Ni1248   1.916       .  S
O1243      C1252   1.281       .  A
O1244     Ni1248   1.919       .  S
O1244      C1251   1.279       .  A
O1245     Ni1248   1.925       .  S
O1245      C1250   1.280       .  A
O1246     Ni1248   1.921       .  S
O1246      C1249   1.282       .  A
Ni1247    Ni1248   2.393       .  S
C1249      C1425   1.443       .  S
C1250      C1432   1.441       .  S
C1251      C1427   1.433       .  S
C1252      C1429   1.434       .  S
C1253      C1254   1.508       .  S
C1253      C1259   1.520       .  S
C1253      C1257   1.529       .  S
C1253      C1428   1.465       .  S
C1254      H1261   1.088       .  S
C1254      C1255   1.360       .  D
C1255      C1408   1.494       .  S
C1256      C1260   1.554       .  S
C1256      C1258   1.552       .  S
C1256      H1262   1.110       .  S
C1257      H1263   1.073       .  S
C1258      C1393   1.488       .  S
C1259      H1264   1.088       .  S
C1260      C1426   1.447       .  S
C1265      C1271   1.509       .  S
C1265      C1269   1.529   1_556  S
C1265      C1430   1.465       .  S
C1266      H1273   1.088       .  S
C1266      C1267   1.364       .  D
C1267      C1268   1.554       .  S
C1267      C1431   1.445       .  S
C1268      C1270   1.552       .  S
C1268      H1274   1.110       .  S
C1269      H1275   1.079       .  S
C1270      C1378   1.481       .  S
C1271      H1276   1.088       .  S
C1271      C1272   1.361       .  D
C1272      C1365   1.493       .  S
O1277     Ni1285   1.927       .  S
O1277      C1287   1.280       .  A
O1278      C1288   1.281       .  A
O1279     Ni1285   1.920   1_455  S
O1279      C1289   1.279       .  A
O1280      C1290   1.280       .  A
O1281      C1290   1.279       .  A
O1282     Ni1286   1.921   1_455  S
O1282      C1289   1.282       .  A
O1283      C1288   1.280       .  A
O1284     Ni1286   1.925       .  S
O1284      C1287   1.282       .  A
Ni1285    Ni1286   2.393       .  S
C1287      C1423   1.445       .  S
C1288      C1419   1.441       .  S
C1289      C1418   1.438       .  S
C1290      C1421   1.433       .  S
C1291      C1292   1.506       .  S
C1291      C1297   1.523       .  S
C1291      C1295   1.536       .  S
C1291      C1420   1.472       .  S
C1292      H1299   1.088       .  S
C1292      C1293   1.362       .  D
C1293      C1294   1.569       .  S
C1293      C1392   1.487       .  S
C1294      C1298   1.547       .  S
C1294      C1296   1.550       .  S
C1294      H1300   1.110       .  S
C1295      H1301   1.078       .  S
C1295      C1296   1.377       .  D
C1296      C1405   1.493       .  S
C1297      H1302   1.088       .  S
C1297      C1298   1.359       .  D
C1298      C1417   1.441       .  S
C1303      C1304   1.522       .  S
C1303      C1309   1.515       .  S
C1303      C1307   1.534       .  S
C1303      C1422   1.465       .  S
C1304      H1311   1.088       .  S
C1304      C1305   1.358       .  D
C1305      C1306   1.552       .  S
C1305      C1424   1.448       .  S
C1306      C1310   1.564       .  S
C1306      C1308   1.548       .  S
C1306      H1312   1.111       .  S
C1307      H1313   1.087       .  S
C1307      C1308   1.374       .  D
C1308      C1379   1.478       .  S
C1309      H1314   1.088       .  S
C1309      C1310   1.361       .  D
C1310      C1364   1.487       .  S
O1315      C1325   1.281   1_565  A
O1316     Ni1323   1.919   1_556  S
O1316      C1326   1.279       .  A
O1317      C1327   1.282   1_565  A
O1318     Ni1323   1.931   1_656  S
O1318      C1328   1.281       .  A
O1319     Ni1324   1.924       .  S
O1321     Ni1324   1.911   1_455  S
C1326      C1411   1.432       .  S
C1327      C1409   1.443       .  S
C1328      C1414   1.447       .  S
C1329      C1330   1.518   1_565  S
C1329      C1333   1.527       .  S
C1329      C1412   1.466       .  S
C1330      H1337   1.088       .  S
C1331      C1332   1.557       .  S
C1331      C1410   1.446       .  S
C1332      C1336   1.564       .  S
C1332      H1338   1.110       .  S
C1333      H1339   1.076       .  S
C1333      C1334   1.370       .  D
C1334      C1407   1.478       .  S
C1335      H1340   1.088       .  S
C1335      C1336   1.363       .  D
C1336      C1394   1.493       .  S
C1341      C1347   1.521       .  S
C1341      C1345   1.531       .  S
C1341      C1416   1.461       .  S
C1342      H1349   1.088       .  S
C1342      C1343   1.360       .  D
C1343      C1344   1.572       .  S
C1343      C1377   1.497       .  S
C1344      C1348   1.556       .  S
C1344      H1350   1.111       .  S
C1345      H1351   1.086       .  S
C1345      C1346   1.370       .  D
C1346      C1366   1.475       .  S
C1347      H1352   1.088       .  S
C1348      C1413   1.451       .  S
O1353     Ni1361   1.927       .  S
O1353      C1363   1.279       .  A
O1354     Ni1361   1.922       .  S
O1354      C1364   1.286       .  A
O1355     Ni1361   1.946       .  S
O1355      C1365   1.283       .  A
O1356     Ni1361   1.943       .  S
O1356      C1366   1.287       .  A
O1357     Ni1362   1.908       .  S
O1357      C1366   1.276       .  A
O1358     Ni1362   1.901       .  S
O1358      C1365   1.283       .  A
O1359     Ni1362   1.929       .  S
O1359      C1364   1.279       .  A
O1360     Ni1362   1.916       .  S
O1360      C1363   1.285       .  A
Ni1361    Ni1362   2.386       .  S
O1367     Ni1375   1.944       .  S
O1367      C1377   1.282       .  A
O1368     Ni1375   1.941       .  S
O1368      C1378   1.286       .  A
O1369     Ni1375   1.927       .  S
O1369      C1379   1.282       .  A
O1370     Ni1375   1.934       .  S
O1370      C1380   1.284       .  A
O1371     Ni1376   1.934       .  S
O1371      C1380   1.282       .  A
O1372     Ni1376   1.923       .  S
O1372      C1379   1.281       .  A
O1373     Ni1376   1.918       .  S
O1373      C1378   1.278       .  A
O1374     Ni1376   1.919       .  S
O1374      C1377   1.286       .  A
Ni1375    Ni1376   2.386       .  S
O1381     Ni1389   1.940       .  S
O1381      C1391   1.286       .  A
O1382     Ni1389   1.943       .  S
O1382      C1392   1.282       .  A
O1383     Ni1389   1.952       .  S
O1383      C1393   1.289       .  A
O1384     Ni1389   1.950       .  S
O1384      C1394   1.284       .  A
O1385     Ni1390   1.900       .  S
O1385      C1394   1.282       .  A
O1386     Ni1390   1.919       .  S
O1386      C1393   1.278       .  A
O1387     Ni1390   1.903       .  S
O1387      C1392   1.283       .  A
O1388     Ni1390   1.911       .  S
O1388      C1391   1.277       .  A
Ni1389    Ni1390   2.386       .  S
O1395     Ni1403   1.908       .  S
O1395      C1405   1.274       .  A
O1396     Ni1403   1.894       .  S
O1396      C1406   1.280       .  A
O1397     Ni1403   1.921       .  S
O1397      C1407   1.280       .  A
O1398     Ni1403   1.915       .  S
O1398      C1408   1.286       .  A
O1399     Ni1404   1.940       .  S
O1399      C1408   1.280       .  A
O1400     Ni1404   1.933       .  S
O1400      C1407   1.284       .  A
O1401     Ni1404   1.966       .  S
O1401      C1406   1.288       .  A
O1402     Ni1404   1.966       .  S
O1402      C1405   1.293       .  A
Ni1403    Ni1404   2.384       .  S
C1411      C1412   1.204       .  T
C1413      C1414   1.213       .  T
C1415      C1416   1.202       .  T
C1417      C1418   1.207       .  T
C1419      C1420   1.209       .  T
C1421      C1422   1.205       .  T
C1423      C1424   1.211       .  T
C1425      C1426   1.210       .  T
C1427      C1428   1.204       .  T
C1429      C1430   1.205       .  T
C1431      C1432   1.209       .  T
C1433      C1434   1.203       .  T
C1435      C1436   1.212       .  T
C1437      C1438   1.206       .  T
C1439      C1440   1.208       .  T
