geometry optimzed in LAMMPS
_audit_creation_date              2020-12-01 
_audit_creation_method            'lammps2cif' 
_symmetry_space_group_name_H-M    'P1' 
_symmetry_Int_Tables_number       1 
_symmetry_cell_setting            triclinic 
loop_ 
_symmetry_equiv_pos_as_xyz 
  x,y,z 
_cell_length_a                    23.10924343 
_cell_length_b                    21.677347005315898 
_cell_length_c                    32.790699423679754 
_cell_angle_alpha                 86.37530592997582 
_cell_angle_beta                  89.43723458275683 
_cell_angle_gamma                 91.53725622183018 
loop_ 
_atom_site_label 
_atom_site_type_symbol 
_atom_site_fract_x 
_atom_site_fract_y 
_atom_site_fract_z 
_atom_site_charge 
O1          O  0.05452272  0.08088990  0.42656794    -0.74400
O2          O  0.90477677  0.09554724  0.38098495    -0.74500
O3          O  0.97115595  0.00014226  0.40050503    -0.74500
O4          O  0.98717402  0.17802249  0.40497737    -0.74600
O5          O  0.02116380  0.18134317  0.34087797    -0.74500
O6          O  0.01633722  0.00754704  0.33997795    -0.74500
O7          O  0.94298509  0.09565268  0.31826292    -0.74400
O8          O  0.09434516  0.09187158  0.36422626    -0.74500
Ni9        Ni  0.97830637  0.08872877  0.40577526     1.25400
Ni10       Ni  0.02028795  0.09477587  0.33877684     1.25400
C11         C  0.09904429  0.08217144  0.40301067     0.87800
C12         C  0.89888006  0.09321135  0.34238852     0.87700
C13         C  0.98757246  0.97570457  0.36766732     0.87700
C14         C  0.00622268  0.20856242  0.37256009     0.87900
O15         O  0.12143783  0.85357508  0.61578089    -0.74400
O16         O  0.97618580  0.88727630  0.57044387    -0.74500
O17         O  0.05447128  0.95314218  0.60982406    -0.74500
O18         O  0.04048661  0.78619543  0.57796289    -0.74600
O19         O  0.07424952  0.87799637  0.11152066    -0.74500
O20         O  0.10107568  0.88080271  0.22564846    -0.74500
O21         O  0.00767430  0.90399554  0.17455778    -0.74400
O22         O  0.16621882  0.85824434  0.15946609    -0.74500
Ni23       Ni  0.04981876  0.87074371  0.59153412     1.25400
Ni24       Ni  0.08626809  0.87674610  0.16862372     1.25400
C25         C  0.12668180  0.83355967  0.65290510     0.87800
C26         C  0.93088479  0.88611927  0.59292471     0.87700
C27         C  0.03715885  0.96577964  0.64561830     0.87700
C28         C  0.01360663  0.74624033  0.60224164     0.87900
N29         N  0.38107936  0.34974553  0.40358795    -0.36600
N30         N  0.33084562  0.42081881  0.46794888    -0.57200
N31         N  0.24290931  0.51714010  0.40406569    -0.36600
N32         N  0.33022990  0.43115775  0.33870748    -0.57200
C33         C  0.41369392  0.33720867  0.43701555     0.27000
C34         C  0.41590768  0.34460096  0.37061555     0.27000
C35         C  0.27945719  0.52395506  0.43512352     0.27000
C36         C  0.27490427  0.52717481  0.36974353     0.27000
C37         C  0.34638318  0.34214154  0.00110974     0.35600
C38         C  0.28712154  0.42047904  0.99878574     0.35600
C39         C  0.35817752  0.39281761  0.31507220     0.35600
C40         C  0.29264481  0.46426631  0.31480587     0.35600
C41         C  0.47024949  0.32861065  0.42511373    -0.21900
C42         C  0.47129270  0.33164258  0.38314814    -0.21900
C43         C  0.33467277  0.54042687  0.42089785    -0.21900
C44         C  0.33170743  0.54300597  0.37908477    -0.21900
C45         C  0.32939147  0.35129317  0.04101550    -0.22900
C46         C  0.29186852  0.40034558  0.03957832    -0.22900
C47         C  0.33994326  0.40304951  0.27503429    -0.22900
C48         C  0.29818017  0.44752383  0.27499306    -0.22900
C49         C  0.39163276  0.32953690  0.47727321    -0.18300
C50         C  0.39710394  0.34650216  0.32998550    -0.18300
C51         C  0.25646437  0.50899985  0.33156056    -0.18300
C52         C  0.25618455  0.47108879  0.98006752    -0.18300
H53         H  0.50791683  0.32452185  0.44406655     0.14600
H54         H  0.50921661  0.32668781  0.36450736     0.14600
H55         H  0.37320812  0.54647355  0.43889161     0.14600
H56         H  0.36775408  0.55095534  0.35788767     0.14600
H57         H  0.34520799  0.32831600  0.06878365     0.12900
H58         H  0.27404111  0.41934470  0.06621930     0.12900
H59         H  0.35522685  0.38086780  0.24845844     0.12900
H60         H  0.27797929  0.46635022  0.24806189     0.12900
H61         H  0.33623628  0.35469347  0.40326550     0.26200
H62         H  0.20045748  0.49917317  0.40632701     0.26200
C63         C  0.59620244  0.83778470  0.24574971     0.86500
C64         C  0.61081813  0.78660119  0.27784381    -0.52900
C65         C  0.56555576  0.75791750  0.29797342     0.09400
C66         C  0.50736725  0.78959294  0.28740781     0.20400
C67         C  0.54943527  0.80909762  0.21922647    -0.54500
C68         C  0.50223621  0.78172574  0.24027539     0.09500
C69         C  0.56430221  0.88462926  0.26991088    -0.54000
C70         C  0.51739873  0.86186909  0.29221757     0.10100
H71         H  0.65481743  0.77145210  0.28288172     0.14600
H72         H  0.47260717  0.76809723  0.30608802     0.00300
H73         H  0.55643287  0.80646467  0.18667736     0.14900
H74         H  0.57893334  0.93216051  0.27146994     0.14700
C75         C  0.61816980  0.79670029  0.03749181     0.86500
C76         C  0.57847297  0.86523615  0.51493446    -0.53700
C77         C  0.53039674  0.84601405  0.49467944     0.09400
C78         C  0.52238028  0.75336119  0.00675415     0.20400
C79         C  0.57744109  0.76232200  0.06925685    -0.54500
C80         C  0.52697684  0.73781188  0.05377424     0.09500
C81         C  0.61885134  0.76352124  0.51566431    -0.54000
C82         C  0.57399726  0.73936822  0.49523594     0.10100
H83         H  0.59552845  0.91249426  0.51218472     0.14600
H84         H  0.48182272  0.75693199  0.48574440     0.00300
H85         H  0.59006585  0.75466875  0.10092656     0.14900
H86         H  0.66243466  0.74643466  0.51295691     0.14700
C87         C  0.39843339  0.16291669  0.07046614     0.86500
C88         C  0.39974046  0.14209796  0.52851295    -0.53700
C89         C  0.44488006  0.16330007  0.50339124     0.09400
C90         C  0.46988290  0.21598680  0.01653537     0.20400
C91         C  0.45383931  0.18904877  0.08815288    -0.54500
C92         C  0.49027451  0.22239607  0.06165576     0.09500
C93         C  0.35889528  0.24291191  0.52630671    -0.54000
C94         C  0.40256281  0.27011937  0.50294307     0.10100
H95         H  0.38071928  0.09599335  0.52739830     0.14600
H96         H  0.49511873  0.25313509  0.48964920     0.00300
H97         H  0.45890387  0.18717982  0.12090433     0.14900
H98         H  0.31475659  0.25885739  0.52478407     0.14700
C99         C  0.35795330  0.22420602  0.25672760     0.86500
C100        C  0.35152667  0.26788869  0.29065171    -0.53700
C101        C  0.40101262  0.28856558  0.30719168     0.09400
C102        C  0.45490881  0.25495101  0.29141825     0.20400
C103        C  0.40374298  0.25419288  0.22710501    -0.54500
C104        C  0.45437519  0.27347140  0.24456935     0.09500
C105        C  0.38779658  0.16879450  0.27719256    -0.54000
C106        C  0.43878722  0.18275548  0.29624623     0.10100
H107        H  0.30956621  0.28542763  0.29897618     0.14600
H108        H  0.49569440  0.26695760  0.30586417     0.00300
H109        H  0.39502140  0.26241206  0.19484003     0.14900
H110        H  0.36839517  0.12256270  0.27860059     0.14700
N111        N  0.46117211  0.10914358  0.39823292    -0.36600
N112        N  0.48099326  0.00777359  0.45898674    -0.57200
N113        N  0.49730848  0.91689364  0.39462574    -0.36600
N114        N  0.47715119  0.01735591  0.33386306    -0.57200
C115        C  0.47906733  0.13919088  0.43126020     0.27000
C116        C  0.48002432  0.14345956  0.36440495     0.27000
C117        C  0.48191159  0.88152453  0.42865426     0.27000
C118        C  0.47885280  0.88608891  0.36224778     0.27000
C119        C  0.48453804  0.03563558  0.99035477     0.35600
C120        C  0.49341969  0.93532088  0.98851731     0.35600
C121        C  0.46883919  0.07003166  0.30984716     0.35600
C122        C  0.48247713  0.97013249  0.30845700     0.35600
C123        C  0.51262509  0.19040085  0.41826676    -0.21900
C124        C  0.51326983  0.19304408  0.37615550    -0.21900
C125        C  0.45042880  0.83004458  0.41792366    -0.21900
C126        C  0.44851455  0.83296497  0.37586845    -0.21900
C127        C  0.49429869  0.01232086  0.03001723    -0.22900
C128        C  0.49870357  0.94944578  0.02897272    -0.22900
C129        C  0.46838145  0.05579326  0.26918092    -0.22900
C130        C  0.47721233  0.99317068  0.26831475    -0.22900
C131        C  0.46862534  0.11885735  0.47262869    -0.18300
C132        C  0.46626491  0.13166761  0.32353325    -0.18300
C133        C  0.48871234  0.90578643  0.32097886    -0.18300
C134        C  0.49775175  0.89429661  0.46865394    -0.18300
H135        H  0.53874073  0.21936947  0.43676885     0.14600
H136        H  0.53978346  0.22462339  0.35685174     0.14600
H137        H  0.42735259  0.79637785  0.43798378     0.14600
H138        H  0.42372348  0.80211787  0.35779009     0.14600
H139        H  0.49918741  0.03806047  0.05704293     0.12900
H140        H  0.50534054  0.91764895  0.05520013     0.12900
H141        H  0.46393888  0.08756464  0.24265222     0.12900
H142        H  0.47826975  0.96726162  0.24117769     0.12900
H143        H  0.43362456  0.07008438  0.39868113     0.26200
H144        H  0.52373501  0.95682476  0.39357624     0.26200
N145        N  0.59410906  0.68083509  0.39583587    -0.36600
N146        N  0.64990304  0.59767105  0.46008349    -0.57200
N147        N  0.72844180  0.50532081  0.39519621    -0.36600
N148        N  0.64077030  0.61017140  0.33073309    -0.57200
C149        C  0.56174192  0.68419052  0.43019818     0.27000
C150        C  0.55836872  0.69172129  0.36379646     0.27000
C151        C  0.69588329  0.49446624  0.42923941     0.27000
C152        C  0.69107368  0.50682010  0.36395397     0.27000
C153        C  0.62713487  0.62229872  0.98225754     0.35600
C154        C  0.68979407  0.54724830  0.98369814     0.35600
C155        C  0.61507091  0.65436827  0.30719557     0.35600
C156        C  0.67351953  0.57592121  0.30643065     0.35600
C157        C  0.50455844  0.69311014  0.41980984    -0.21900
C158        C  0.50250159  0.69811849  0.37777736    -0.21900
C159        C  0.63809274  0.48551090  0.41938805    -0.21900
C160        C  0.63501097  0.49357653  0.37775362    -0.21900
C161        C  0.64468280  0.61274688  0.02229126    -0.22900
C162        C  0.68353063  0.56537721  0.02327094    -0.22900
C163        C  0.63034800  0.64776824  0.26666926    -0.22900
C164        C  0.66715437  0.59810274  0.26609999    -0.22900
C165        C  0.58417394  0.68402359  0.47005580    -0.18300
C166        C  0.57625585  0.69795723  0.32257600    -0.18300
C167        C  0.70639598  0.52569679  0.32360335    -0.18300
C168        C  0.72447132  0.49937895  0.96806932    -0.18300
H169        H  0.46738489  0.69202938  0.43999682     0.14600
H170        H  0.46371689  0.70197083  0.35984477     0.14600
H171        H  0.60169947  0.47917676  0.44042458     0.14600
H172        H  0.59600791  0.49298822  0.35974135     0.14600
H173        H  0.62891246  0.63539814  0.04853804     0.12900
H174        H  0.69991754  0.54497942  0.05098485     0.12900
H175        H  0.61473075  0.67418845  0.24010215     0.12900
H176        H  0.68346763  0.57980841  0.23866848     0.12900
H177        H  0.63910264  0.67760886  0.39438246     0.26200
H178        H  0.77225986  0.51872170  0.39367604     0.26200
N179        N  0.31154413  0.60111462  0.15433842    -0.36600
N180        N  0.39878550  0.63150602  0.09089318    -0.57200
N181        N  0.49004085  0.73343615  0.14777615    -0.36600
N182        N  0.37587312  0.66770386  0.21451722    -0.57200
C183        C  0.29527501  0.56414547  0.12432641     0.27000
C184        C  0.28206992  0.58046601  0.18874698     0.27000
C185        C  0.49666787  0.68719893  0.12250833     0.27000
C186        C  0.48601647  0.70646438  0.18610208     0.27000
C187        C  0.35951742  0.60336103  0.06772407     0.35600
C188        C  0.44192383  0.65516000  0.06566324     0.35600
C189        C  0.32745963  0.65261707  0.23708526     0.35600
C190        C  0.40783932  0.71033382  0.23445387     0.35600
C191        C  0.25785301  0.51831317  0.13976060    -0.21900
C192        C  0.24860720  0.52891599  0.17956029    -0.21900
C193        C  0.49847887  0.63087856  0.14496600    -0.21900
C194        C  0.49189723  0.64313643  0.18524580    -0.21900
C195        C  0.37893552  0.60607545  0.02755499    -0.22900
C196        C  0.43191586  0.63731722  0.02652775    -0.22900
C197        C  0.33109270  0.68405794  0.27265453    -0.22900
C198        C  0.37862914  0.72346978  0.26955871    -0.22900
C199        C  0.30590816  0.57657249  0.08246191    -0.18300
C200        C  0.28046893  0.61148917  0.22588389    -0.18300
C201        C  0.46281921  0.73506130  0.21972755    -0.18300
C202        C  0.48769700  0.69321093  0.08003399    -0.18300
H203        H  0.23783136  0.48100824  0.12453035     0.14600
H204        H  0.21781623  0.50093686  0.19685728     0.14600
H205        H  0.50011097  0.58545706  0.13310204     0.14600
H206        H  0.48712308  0.60916004  0.21079643     0.14600
H207        H  0.35798137  0.58571219  0.00208844     0.12900
H208        H  0.46106422  0.64125997  0.00078558     0.12900
H209        H  0.30324880  0.67959585  0.29898398     0.12900
H210        H  0.38771345  0.75806088  0.29077556     0.12900
H211        H  0.33404225  0.64335282  0.14985138     0.26200
H212        H  0.48072176  0.77925800  0.13893993     0.26200
C213        C  0.16029336  0.64346268  0.30493926     0.86500
C214        C  0.18141272  0.58899341  0.33227549    -0.53700
C215        C  0.20319968  0.54067085  0.31279854     0.09400
C216        C  0.18883956  0.54726482  0.26678540     0.20400
C217        C  0.20601899  0.65642703  0.27089045    -0.54500
C218        C  0.22577144  0.60607986  0.25253544     0.09500
C219        C  0.10911257  0.61659479  0.28259354    -0.54000
C220        C  0.12279966  0.56618874  0.26150385     0.10100
H221        H  0.18680132  0.59452236  0.36460018     0.14600
H222        H  0.19519791  0.50243069  0.25481334     0.00300
H223        H  0.22243450  0.70308880  0.26285884     0.14900
H224        H  0.06723561  0.63794572  0.28053842     0.14700
C225        C  0.19795767  0.63083292  0.00057517     0.86500
C226        C  0.24627989  0.63231987  0.03196443    -0.53700
C227        C  0.25463110  0.57899325  0.05455988     0.09400
C228        C  0.20868701  0.52797976  0.04548123     0.20400
C229        C  0.20932153  0.57437562  0.97636269    -0.54500
C230        C  0.21951953  0.51992688  0.99923867     0.09500
C231        C  0.14330126  0.61251031  0.02548086    -0.54000
C232        C  0.14774194  0.55888706  0.04938266     0.10100
H233        H  0.27375920  0.67327300  0.03516203     0.14600
H234        H  0.20952189  0.48437409  0.06393254     0.00300
H235        H  0.21343733  0.61201833  0.44523939     0.14900
H236        H  0.10460726  0.63975239  0.02534819     0.14700
C237        C  0.81828392  0.36185802  0.00631580     0.86500
C238        C  0.77360747  0.35656122  0.04153766    -0.53700
C239        C  0.75369341  0.41100467  0.05368417     0.09400
C240        C  0.78908537  0.46704106  0.03411638     0.20400
C241        C  0.79140662  0.40748433  0.97411593    -0.54500
C242        C  0.77318775  0.46259932  0.98889113     0.09500
C243        C  0.86887361  0.39741020  0.02444928    -0.54000
C244        C  0.85473516  0.45129548  0.04042154     0.10100
H245        H  0.75515202  0.31272575  0.05410570     0.14600
H246        H  0.78234166  0.51375000  0.04319751     0.00300
H247        H  0.76908591  0.40607452  0.43909098     0.14900
H248        H  0.91087431  0.37780388  0.03029207     0.14700
C249        C  0.77551369  0.37779512  0.29168909     0.86500
C250        C  0.76021986  0.42730961  0.32102871    -0.53700
C251        C  0.74977876  0.48537227  0.30283263     0.09400
C252        C  0.76501343  0.48842937  0.25645981     0.20400
C253        C  0.72965115  0.38272294  0.25863827    -0.54500
C254        C  0.72109581  0.43977325  0.24147917     0.09500
C255        C  0.83147922  0.40260827  0.27101828    -0.54000
C256        C  0.82738106  0.46013555  0.25187106     0.10100
H257        H  0.75153787  0.41450328  0.35294035     0.14600
H258        H  0.76368225  0.53533764  0.24173535     0.00300
H259        H  0.70232183  0.34340554  0.25113648     0.14900
H260        H  0.87026468  0.37565376  0.26927089     0.14700
N261        N  0.07696236  0.52894413  0.15430264    -0.36600
N262        N  0.97949351  0.51419815  0.21399656    -0.57200
N263        N  0.89773436  0.49382886  0.14723710    -0.36600
N264        N  0.99546990  0.50866765  0.08766461    -0.57200
C265        C  0.09739362  0.55778442  0.18717926     0.27000
C266        C  0.10629679  0.55431555  0.12079759     0.27000
C267        C  0.86901079  0.46775334  0.18080465     0.27000
C268        C  0.87877564  0.46332184  0.11461646     0.27000
C269        C  0.02380060  0.52336406  0.24031816     0.35600
C270        C  0.93053540  0.50216380  0.23704481     0.35600
C271        C  0.04463567  0.51911622  0.06473006     0.35600
C272        C  0.95176831  0.49752413  0.06132120     0.35600
C273        C  0.13726887  0.60369556  0.17386954    -0.21900
C274        C  0.14365225  0.60083209  0.13239354    -0.21900
C275        C  0.83369911  0.41935788  0.16945606    -0.21900
C276        C  0.84103240  0.41567495  0.12830613    -0.21900
C277        C  0.00277459  0.51620883  0.28014433    -0.22900
C278        C  0.94405755  0.50355828  0.27806728    -0.22900
C279        C  0.03189071  0.51456056  0.02378498    -0.22900
C280        C  0.97333838  0.50166497  0.02160328    -0.22900
C281        C  0.08143740  0.54434589  0.22894974    -0.18300
C282        C  0.09958751  0.53867877  0.07962563    -0.18300
C283        C  0.89445715  0.47636561  0.07277112    -0.18300
C284        C  0.87526359  0.48331966  0.22200846    -0.18300
H285        H  0.15845514  0.63745487  0.19180011     0.14600
H286        H  0.17141639  0.63116218  0.11284533     0.14600
H287        H  0.80754612  0.38742967  0.18896914     0.14600
H288        H  0.82292783  0.37929228  0.11121910     0.14600
H289        H  0.02699148  0.52069367  0.30792841     0.12900
H290        H  0.91491446  0.49475118  0.30394428     0.12900
H291        H  0.06147901  0.52101039  0.99798409     0.12900
H292        H  0.94966979  0.49448586  0.99390586     0.12900
H293        H  0.04805570  0.49106057  0.15510130     0.26200
H294        H  0.92546885  0.53268952  0.14626969     0.26200
N295        N  0.65953515  0.42674512  0.14451492    -0.36600
N296        N  0.60217301  0.35286950  0.08338352    -0.57200
N297        N  0.50137710  0.27838424  0.15183577    -0.36600
N298        N  0.57674537  0.39016197  0.20904603    -0.57200
C299        C  0.69235636  0.44425610  0.11118002     0.27000
C300        C  0.67680792  0.46284305  0.17474970     0.27000
C301        C  0.49798240  0.30418932  0.11326930     0.27000
C302        C  0.48839342  0.32289602  0.17703627     0.27000
C303        C  0.65016665  0.37101334  0.06162512     0.35600
C304        C  0.57282671  0.30960853  0.06248430     0.35600
C305        C  0.61539856  0.41932782  0.23198395     0.35600
C306        C  0.53813088  0.35892085  0.23461758     0.35600
C307        C  0.72881638  0.49326467  0.12076952    -0.21900
C308        C  0.71809971  0.50552027  0.16017562    -0.21900
C309        C  0.48310035  0.36560732  0.11421972    -0.21900
C310        C  0.47702048  0.37749918  0.15469742    -0.21900
C311        C  0.64907843  0.34131836  0.02506547    -0.22900
C312        C  0.60169706  0.30082889  0.02641133    -0.22900
C313        C  0.59987565  0.40937904  0.27283629    -0.22900
C314        C  0.55013087  0.37234900  0.27436576    -0.22900
C315        C  0.69600198  0.41122420  0.07521051    -0.18300
C316        C  0.66770850  0.44836547  0.21651204    -0.18300
C317        C  0.49575126  0.31751887  0.21964035    -0.18300
C318        C  0.52177751  0.27848233  0.07852828    -0.18300
H319        H  0.76313858  0.51675039  0.10361977     0.14600
H320        H  0.74167282  0.53925558  0.17674644     0.14600
H321        H  0.48061767  0.39904363  0.08838723     0.14600
H322        H  0.46811151  0.42176530  0.16659765     0.14600
H323        H  0.67931838  0.34769859  0.99973781     0.12900
H324        H  0.59071939  0.26924408  0.00339888     0.12900
H325        H  0.62217867  0.42688024  0.29872952     0.12900
H326        H  0.52538444  0.35988883  0.30143509     0.12900
H327        H  0.63513965  0.38585849  0.14841757     0.26200
H328        H  0.51876342  0.23570913  0.16084341     0.26200
C329        C  0.25937380  0.88440240  0.12946038    -0.03200
C330        C  0.29106493  0.93000635  0.10540385    -0.05800
C331        C  0.32511531  0.91329218  0.07264714    -0.20900
C332        C  0.32855381  0.85085400  0.06430578     0.24900
C333        C  0.25501612  0.76606624  0.62855509    -0.18400
C334        C  0.20890411  0.76697722  0.65654044    -0.08400
C335        C  0.33687297  0.83278949  0.02194713    -0.18700
C336        C  0.29883351  0.85397500  0.99367740    -0.23500
C337        C  0.26055366  0.80787937  0.97536005     0.26900
C338        C  0.25848562  0.78805673  0.48173125    -0.20200
C339        C  0.25358521  0.70425980  0.95236657    -0.09900
C340        C  0.20205935  0.69262433  0.97568452    -0.10400
C341        C  0.17430222  0.74386815  0.99053573    -0.03400
C342        C  0.20331328  0.80136590  0.99001022    -0.18500
H343        H  0.28338848  0.97864136  0.10813722     0.10600
H344        H  0.34258715  0.94908531  0.05106393     0.10700
H345        H  0.26465797  0.72279282  0.61555926     0.10300
H346        H  0.18337401  0.72477566  0.66298261     0.11400
H347        H  0.35356364  0.78675395  0.01913553     0.11500
H348        H  0.23972483  0.89641140  0.55091149     0.13400
H349        H  0.30367894  0.79811391  0.47431011     0.10000
H350        H  0.25855943  0.70536421  0.45076881     0.12100
H351        H  0.13455119  0.73801838  0.00814335     0.08700
H352        H  0.18446181  0.83764934  0.00666812     0.11400
C353        C  0.04468073  0.02865937  0.65884213    -0.03200
C354        C  0.20345161  0.88715631  0.27682699    -0.05800
C355        C  0.25874049  0.91523931  0.27290958    -0.20900
C356        C  0.26430586  0.97960502  0.27479259     0.24900
C357        C  0.21851894  0.01067301  0.29237844    -0.18400
C358        C  0.04887784  0.07885720  0.62983884    -0.08400
C359        C  0.30452474  0.01359911  0.24535977    -0.18700
C360        C  0.28256711  0.05490431  0.21742456    -0.23500
C361        C  0.31230572  0.08061745  0.17959904     0.26900
C362        C  0.28914636  0.13270785  0.15870559    -0.20200
C363        C  0.31450038  0.15833615  0.12244989    -0.09900
C364        C  0.36249427  0.13073315  0.10517578    -0.10400
C365        C  0.38428191  0.07702343  0.12556616    -0.03400
C366        C  0.35966568  0.05230112  0.16227962    -0.18500
H367        H  0.19800759  0.84039249  0.26730810     0.10600
H368        H  0.29399878  0.88915115  0.26131036     0.10700
H369        H  0.08383008  0.17003684  0.61658234     0.10300
H370        H  0.03826079  0.07319263  0.59816079     0.11400
H371        H  0.34806194  0.99704012  0.24200670     0.11500
H372        H  0.23796818  0.06847392  0.22109786     0.13400
H373        H  0.25163459  0.15444307  0.17090371     0.10000
H374        H  0.29740221  0.20083049  0.10922601     0.12100
H375        H  0.42203606  0.05528462  0.11373298     0.08700
H376        H  0.37759777  0.01086368  0.17657392     0.11400
C377        C  0.83161677  0.29681407  0.99283010    -0.03200
C378        C  0.78658548  0.25123057  0.99386059    -0.05800
C379        C  0.79778460  0.19006967  0.00707604    -0.20900
C380        C  0.85476307  0.17262090  0.01488597     0.24900
C381        C  0.90029004  0.21400589  0.00271743    -0.18400
C382        C  0.88884008  0.27589676  0.99160079    -0.08400
C383        C  0.86767360  0.11548184  0.04002912    -0.18700
C384        C  0.84215073  0.10233436  0.07692513    -0.23500
C385        C  0.86690340  0.05667148  0.10716283     0.26900
C386        C  0.88149450  0.07472083  0.14621610    -0.20200
C387        C  0.91777101  0.03824419  0.17121856    -0.09900
C388        C  0.93833598  0.98233172  0.15798586    -0.10400
C389        C  0.91666104  0.96042004  0.12151589    -0.03400
C390        C  0.88187343  0.99777015  0.09606568    -0.18500
H391        H  0.74192469  0.26447211  0.99134924     0.10600
H392        H  0.76191508  0.15781214  0.01403730     0.10700
H393        H  0.94482297  0.20035669  0.00614087     0.10300
H394        H  0.92516233  0.30790708  0.98613776     0.11400
H395        H  0.90616075  0.09109249  0.03225620     0.11500
H396        H  0.80913254  0.13257019  0.08744542     0.13400
H397        H  0.86967380  0.11973162  0.15566131     0.10000
H398        H  0.93451624  0.05664040  0.19883923     0.12100
H399        H  0.90529135  0.89775234  0.51256513     0.08700
H400        H  0.86956007  0.98261160  0.06657602     0.11400
C401        C  0.67719686  0.81767803  0.05311729    -0.03200
C402        C  0.69871041  0.87922007  0.04689511    -0.05800
C403        C  0.75824010  0.89166366  0.04398156    -0.20900
C404        C  0.79713455  0.84336660  0.04913528     0.24900
C405        C  0.77607616  0.78451905  0.06315968    -0.18400
C406        C  0.71654099  0.77187977  0.06564036    -0.08400
C407        C  0.85975233  0.85277182  0.04068030    -0.18700
C408        C  0.82361460  0.68420668  0.56994364    -0.23500
C409        C  0.87991999  0.65409649  0.56875004     0.26900
C410        C  0.90233538  0.63249977  0.60632320    -0.20200
C411        C  0.95978095  0.64761683  0.61528098    -0.09900
C412        C  0.99180441  0.68723733  0.58725060    -0.10400
C413        C  0.97557640  0.68880653  0.54603907    -0.03400
C414        C  0.91868777  0.67227689  0.53669545    -0.18500
H415        H  0.67081843  0.91788250  0.04175188     0.10600
H416        H  0.77362478  0.93867225  0.03650090     0.10700
H417        H  0.73770128  0.72922963  0.62350185     0.10300
H418        H  0.70150921  0.72455421  0.07248425     0.11400
H419        H  0.88863802  0.82409950  0.05914942     0.11500
H420        H  0.78521159  0.65733203  0.58012117     0.13400
H421        H  0.87347978  0.61564952  0.63104851     0.10000
H422        H  0.97337892  0.64152154  0.64677659     0.12100
H423        H  0.02957797  0.02262703  0.04173751     0.08700
H424        H  0.90238193  0.68651922  0.50679535     0.11400
C425        C  0.29753644  0.21626781  0.23951541    -0.03200
C426        C  0.27655933  0.26486469  0.21317129    -0.05800
C427        C  0.21926134  0.28318259  0.21601060    -0.20900
C428        C  0.18118377  0.25188530  0.24396886     0.24900
C429        C  0.19895375  0.19801642  0.26559201    -0.18400
C430        C  0.25676942  0.18110370  0.26392298    -0.08400
C431        C  0.12760844  0.28046271  0.25727637    -0.18700
C432        C  0.13080258  0.33200275  0.27833479    -0.23500
C433        C  0.08928525  0.33752646  0.31233197     0.26900
C434        C  0.10926617  0.32424570  0.35213017    -0.20200
C435        C  0.07211210  0.29420265  0.38143867    -0.09900
C436        C  0.01624767  0.27571563  0.36997463    -0.10400
C437        C  0.99242642  0.30626420  0.33516976    -0.03400
C438        C  0.02953276  0.33483800  0.30528342    -0.18500
H439        H  0.30566067  0.29498739  0.19464129     0.10600
H440        H  0.20613758  0.32493615  0.19908696     0.10700
H441        H  0.17009296  0.17371502  0.28778274     0.10300
H442        H  0.27138343  0.14685278  0.28650953     0.11400
H443        H  0.08927765  0.25031340  0.26092360     0.11500
H444        H  0.17190717  0.35747714  0.27937806     0.13400
H445        H  0.15517646  0.32715435  0.35844141     0.10000
H446        H  0.09101637  0.27322811  0.40889111     0.12100
H447        H  0.94846762  0.29490628  0.32648955     0.08700
H448        H  0.01296493  0.34630810  0.27503439     0.11400
C449        C  0.15672174  0.70002505  0.32998731    -0.03200
C450        C  0.10789808  0.73653567  0.33374288    -0.05800
C451        C  0.11132938  0.78919374  0.35677941    -0.20900
C452        C  0.16358990  0.80629020  0.37556843     0.24900
C453        C  0.21136839  0.76896063  0.37220385    -0.18400
C454        C  0.20762658  0.71671373  0.35045452    -0.08400
C455        C  0.16760508  0.86296697  0.39844904    -0.18700
C456        C  0.21822170  0.89225551  0.40683250    -0.23500
C457        C  0.21698954  0.95457737  0.42178534     0.26900
C458        C  0.18131248  0.96555136  0.45518351    -0.20200
C459        C  0.15121308  0.02029955  0.45492669    -0.09900
C460        C  0.15441136  0.06113574  0.41988749    -0.10400
C461        C  0.20196810  0.05786957  0.39316010    -0.03400
C462        C  0.23393708  0.00405001  0.39440538    -0.18500
H463        H  0.06777734  0.72516194  0.31891395     0.10600
H464        H  0.07355868  0.81724190  0.35932462     0.10700
H465        H  0.25189874  0.77877092  0.38689388     0.10300
H466        H  0.24520463  0.68825911  0.35024829     0.11400
H467        H  0.12711997  0.88424935  0.40604331     0.11500
H468        H  0.25933527  0.87670885  0.39577417     0.13400
H469        H  0.16926874  0.92845412  0.47748589     0.10000
H470        H  0.11690554  0.02345923  0.47738894     0.12100
H471        H  0.20751427  0.09090947  0.36714400     0.08700
H472        H  0.26399507  0.99703983  0.36970265     0.11400
C473        C  0.65293168  0.85864120  0.22386254    -0.03200
C474        C  0.68720691  0.81205770  0.20848971    -0.05800
C475        C  0.74735692  0.81466409  0.21320933    -0.20900
C476        C  0.77381779  0.86666530  0.22908557     0.24900
C477        C  0.74103969  0.91898885  0.23414912    -0.18400
C478        C  0.68078850  0.91544641  0.23127593    -0.08400
C479        C  0.83195051  0.86414097  0.24726723    -0.18700
C480        C  0.83987187  0.82997784  0.28254550    -0.23500
C481        C  0.88713087  0.84585606  0.31057071     0.26900
C482        C  0.87335131  0.85716014  0.35121100    -0.20200
C483        C  0.91173278  0.89172881  0.37419096    -0.09900
C484        C  0.96439592  0.91463795  0.35668654    -0.10400
C485        C  0.98223826  0.89262621  0.31911641    -0.03400
C486        C  0.94338701  0.85966007  0.29579927    -0.18500
H487        H  0.66718827  0.76868737  0.20065777     0.10600
H488        H  0.77233625  0.77430733  0.20793542     0.10700
H489        H  0.76141488  0.96013817  0.24496118     0.10300
H490        H  0.65717113  0.95510324  0.23949255     0.11400
H491        H  0.86323261  0.90069995  0.23774978     0.11500
H492        H  0.80472961  0.79961267  0.29468072     0.13400
H493        H  0.83038945  0.84577567  0.36343267     0.10000
H494        H  0.89682519  0.90726858  0.40314040     0.12100
H495        H  0.02320072  0.90813089  0.30515345     0.08700
H496        H  0.95552769  0.84975096  0.26494467     0.11400
C497        C  0.84038509  0.08472136  0.32609382    -0.03200
C498        C  0.79241139  0.08002675  0.35291016    -0.05800
C499        C  0.73665052  0.07580781  0.33762692    -0.20900
C500        C  0.72814957  0.07643405  0.29542114     0.24900
C501        C  0.77581720  0.07466840  0.26886793    -0.18400
C502        C  0.83183541  0.07909845  0.28411050    -0.08400
C503        C  0.67255820  0.09777936  0.27946852    -0.18700
C504        C  0.65928144  0.15771200  0.28072855    -0.23500
C505        C  0.70156117  0.20574585  0.29331340     0.26900
C506        C  0.68837035  0.24169263  0.32584263    -0.20200
C507        C  0.72379180  0.29274473  0.33390530    -0.09900
C508        C  0.77185041  0.31050524  0.30819326    -0.10400
C509        C  0.79047324  0.26715684  0.28088881    -0.03400
C510        C  0.75403798  0.21747063  0.27191544    -0.18500
H511        H  0.79768970  0.08240070  0.38556711     0.10600
H512        H  0.70004265  0.07770041  0.35837654     0.10700
H513        H  0.76965072  0.07599940  0.23611292     0.10300
H514        H  0.86813125  0.08092067  0.26289656     0.11400
H515        H  0.64060035  0.06438118  0.26966500     0.11500
H516        H  0.61560765  0.17146801  0.27324259     0.13400
H517        H  0.64878887  0.23257955  0.34339703     0.10000
H518        H  0.70773027  0.32312154  0.35603966     0.12100
H519        H  0.82682939  0.27818857  0.26043120     0.08700
H520        H  0.76469262  0.19156730  0.24589380     0.11400
O521        O  0.06926500  0.06593448  0.89825384    -0.74400
O522        O  0.90495632  0.07290056  0.89303771    -0.74500
O523        O  0.98166129  0.98466929  0.88198871    -0.74500
O524        O  0.99233947  0.15626514  0.90831093    -0.74600
O525        O  0.99222803  0.18228661  0.84140949    -0.74500
O526        O  0.99618521  0.01490493  0.81630752    -0.74500
O527        O  0.91221581  0.09426054  0.82565815    -0.74400
O528        O  0.07659423  0.10022371  0.83280129    -0.74500
Ni529      Ni  0.98689437  0.06925670  0.89805728     1.25400
Ni530      Ni  0.99455533  0.09945278  0.82689020     1.25400
C531        C  0.09980699  0.07900370  0.86591090     0.87800
C532        C  0.88177684  0.07990167  0.85785685     0.87700
C533        C  0.98603425  0.97221023  0.84424231     0.87700
C534        C  0.99442235  0.19750435  0.87838852     0.87900
O535        O  0.19083197  0.95793342  0.14761369    -0.74400
O536        O  0.03639293  0.00329893  0.16968155    -0.74500
O537        O  0.13083579  0.97950918  0.21603312    -0.74500
O538        O  0.09506020  0.97895642  0.10206265    -0.74600
O539        O  0.99687092  0.76023921  0.63773884    -0.74500
O540        O  0.01594710  0.92394611  0.67091639    -0.74500
O541        O  0.93233949  0.86540698  0.63065477    -0.74400
O542        O  0.08216504  0.82251081  0.67631632    -0.74500
Ni543      Ni  0.11435317  0.98349593  0.15893551     1.25400
Ni544      Ni  0.00524599  0.84146546  0.65613571     1.25400
C545        C  0.20370609  0.90088041  0.14808746     0.87800
C546        C  0.99612129  0.96175451  0.17064273     0.87700
C547        C  0.12446445  0.92948069  0.23901031     0.87700
C548        C  0.07710274  0.92773390  0.08838352     0.87900
N549        N  0.38231586  0.31803262  0.91292073    -0.36600
N550        N  0.32077563  0.38465345  0.97598362    -0.57200
N551        N  0.23733271  0.47935069  0.90730305    -0.36600
N552        N  0.33239273  0.40426616  0.84546327    -0.57200
C553        C  0.41339427  0.31113375  0.94784348     0.27000
C554        C  0.42098059  0.32377078  0.88132927     0.27000
C555        C  0.27236736  0.48529290  0.93945643     0.27000
C556        C  0.27038223  0.49558632  0.87414373     0.27000
C557        C  0.35273859  0.37400061  0.49152352     0.35600
C558        C  0.29743293  0.45482095  0.49211290     0.35600
C559        C  0.37068744  0.37515781  0.82308878     0.35600
C560        C  0.29787503  0.43772066  0.81939023     0.35600
C561        C  0.47189485  0.31712412  0.93809077    -0.21900
C562        C  0.47662660  0.32349695  0.89605543    -0.21900
C563        C  0.32682308  0.50744577  0.92729062    -0.21900
C564        C  0.32548748  0.51462046  0.88561405    -0.21900
C565        C  0.33452785  0.37954031  0.53142367    -0.22900
C566        C  0.30040184  0.43066881  0.53197941    -0.22900
C567        C  0.36073638  0.38982691  0.78190394    -0.22900
C568        C  0.31473568  0.42961888  0.77955929    -0.22900
C569        C  0.38956725  0.30113459  0.98801010    -0.18300
C570        C  0.40744992  0.32816327  0.83943396    -0.18300
C571        C  0.25696509  0.47879265  0.83463800    -0.18300
C572        C  0.26511204  0.50542930  0.47550121    -0.18300
H573        H  0.50763625  0.32118510  0.95877914     0.14600
H574        H  0.51642073  0.32947575  0.87844415     0.14600
H575        H  0.36371373  0.51561824  0.94647562     0.14600
H576        H  0.36193736  0.52754163  0.86558362     0.14600
H577        H  0.34546374  0.35091738  0.55782565     0.12900
H578        H  0.28357294  0.44809546  0.55930094     0.12900
H579        H  0.38429135  0.37337783  0.75626680     0.12900
H580        H  0.29932312  0.45224111  0.75187648     0.12900
H581        H  0.33727811  0.31509955  0.91056923     0.26200
H582        H  0.19538538  0.46005082  0.90786095     0.26200
C583        C  0.59973702  0.82373362  0.74842616     0.86500
C584        C  0.61577694  0.77122694  0.77900252    -0.52900
C585        C  0.57129974  0.74067864  0.79897435     0.09400
C586        C  0.51249724  0.77272019  0.79046394     0.20400
C587        C  0.55146879  0.79700175  0.72222623    -0.54500
C588        C  0.50582008  0.76657158  0.74346488     0.09500
C589        C  0.56893012  0.86897905  0.77435683    -0.54000
C590        C  0.52252151  0.84498099  0.79681617     0.10100
H591        H  0.66024213  0.75705102  0.78307765     0.14600
H592        H  0.47756820  0.75092408  0.80859771     0.00300
H593        H  0.55562875  0.79964515  0.68919270     0.14900
H594        H  0.58349311  0.91647066  0.77642510     0.14700
C595        C  0.60488494  0.81578064  0.54306742     0.86500
C596        C  0.58176099  0.84608998  0.01617344    -0.53700
C597        C  0.53115432  0.82601954  0.00008372     0.09400
C598        C  0.51698728  0.77381645  0.50328605     0.20400
C599        C  0.55394157  0.79201637  0.57025262    -0.54500
C600        C  0.50906703  0.76390705  0.55066102     0.09500
C601        C  0.62727421  0.75105483  0.00472913    -0.54000
C602        C  0.57859974  0.72440601  0.99014883     0.10100
H603        H  0.59617722  0.89369157  0.01088255     0.14600
H604        H  0.48200984  0.73713830  0.99349461     0.00300
H605        H  0.55425907  0.79642766  0.60294956     0.14900
H606        H  0.67016614  0.73713780  0.99568241     0.14700
C607        C  0.37609936  0.18954245  0.55607710     0.86500
C608        C  0.41776710  0.11990942  0.03895719    -0.53700
C609        C  0.45746660  0.14396713  0.01087154     0.09400
C610        C  0.46028696  0.23482445  0.50918725     0.20400
C611        C  0.42861879  0.21201538  0.57893734    -0.54500
C612        C  0.47204910  0.24074180  0.55594200     0.09500
C613        C  0.37220865  0.21694114  0.04453416    -0.54000
C614        C  0.40924754  0.24680093  0.01618058     0.10100
H615        H  0.39950224  0.07325778  0.03862710     0.14600
H616        H  0.50120325  0.23684653  0.99485431     0.00300
H617        H  0.42854197  0.20928546  0.61215573     0.14900
H618        H  0.32701371  0.22830992  0.04664417     0.14700
C619        C  0.35773809  0.20948526  0.76729335     0.86500
C620        C  0.35585387  0.25154078  0.80249880    -0.53700
C621        C  0.40736960  0.26992684  0.81715908     0.09400
C622        C  0.45848782  0.23692524  0.79749093     0.20400
C623        C  0.40153936  0.23878944  0.73602673    -0.54500
C624        C  0.45364126  0.25790064  0.75119740     0.09500
C625        C  0.38799094  0.15250623  0.78546260    -0.54000
C626        C  0.44124408  0.16504054  0.80223187     0.10100
H627        H  0.31547188  0.27057657  0.81285694     0.14600
H628        H  0.50109250  0.24753151  0.80942193     0.00300
H629        H  0.39061173  0.24307700  0.70403727     0.14900
H630        H  0.36736134  0.10682869  0.78764694     0.14700
N631        N  0.46891889  0.09057626  0.90425018    -0.36600
N632        N  0.48453197  0.98821044  0.96482964    -0.57200
N633        N  0.49887795  0.89823668  0.90051071    -0.36600
N634        N  0.48131510  0.99977413  0.83971049    -0.57200
C635        C  0.48592064  0.12152579  0.93714880     0.27000
C636        C  0.48360713  0.12683912  0.87026324     0.27000
C637        C  0.48290688  0.86198009  0.93412604     0.27000
C638        C  0.48303498  0.86732764  0.86747900     0.27000
C639        C  0.47460881  0.05441001  0.48471806     0.35600
C640        C  0.49139371  0.95531166  0.48270415     0.35600
C641        C  0.47161255  0.05244250  0.81591551     0.35600
C642        C  0.48672500  0.95265709  0.81417234     0.35600
C643        C  0.51447226  0.17579679  0.92384645    -0.21900
C644        C  0.51290478  0.17932513  0.88195947    -0.21900
C645        C  0.45396116  0.80964662  0.92243767    -0.21900
C646        C  0.45389946  0.81302654  0.88031226    -0.21900
C647        C  0.48077884  0.03104079  0.52473720    -0.22900
C648        C  0.49134362  0.96893923  0.52346768    -0.22900
C649        C  0.47021796  0.03826977  0.77527891    -0.22900
C650        C  0.48019248  0.97585587  0.77416287    -0.22900
C651        C  0.47845548  0.10032443  0.97863488    -0.18300
C652        C  0.46904125  0.11420712  0.82952908    -0.18300
C653        C  0.49373482  0.88811637  0.82633491    -0.18300
C654        C  0.49706474  0.87393246  0.97465358    -0.18300
H655        H  0.53979801  0.20648941  0.94156907     0.14600
H656        H  0.53660466  0.21387992  0.86326404     0.14600
H657        H  0.43159710  0.77490403  0.94207861     0.14600
H658        H  0.43080744  0.78163960  0.86167433     0.14600
H659        H  0.47991027  0.05644482  0.55209287     0.12900
H660        H  0.49709961  0.93710435  0.54979949     0.12900
H661        H  0.46460597  0.07006777  0.74890907     0.12900
H662        H  0.48103041  0.95010735  0.74695100     0.12900
H663        H  0.44391207  0.04970059  0.90492426     0.26200
H664        H  0.52431397  0.93880379  0.90018215     0.26200
N665        N  0.59701722  0.65921854  0.89450312    -0.36600
N666        N  0.65393357  0.58187794  0.95914743    -0.57200
N667        N  0.74066242  0.49726502  0.89587413    -0.36600
N668        N  0.64753843  0.59146867  0.82956167    -0.57200
C669        C  0.56394163  0.66461846  0.92818295     0.27000
C670        C  0.56225425  0.66938561  0.86199624     0.27000
C671        C  0.70829264  0.48257056  0.92949504     0.27000
C672        C  0.70424626  0.49451648  0.86425978     0.27000
C673        C  0.62447291  0.63808998  0.48391572     0.35600
C674        C  0.68307972  0.55917367  0.48423718     0.35600
C675        C  0.62455144  0.63813870  0.80658202     0.35600
C676        C  0.68595962  0.56197054  0.80633025     0.35600
C677        C  0.50745219  0.67518495  0.91713547    -0.21900
C678        C  0.50617334  0.67720724  0.87519455    -0.21900
C679        C  0.65173582  0.46796629  0.91913053    -0.21900
C680        C  0.64912023  0.47567089  0.87745231    -0.21900
C681        C  0.64033253  0.62439246  0.52409160    -0.22900
C682        C  0.67678307  0.57467566  0.52436908    -0.22900
C683        C  0.64745418  0.63759229  0.76731906    -0.22900
C684        C  0.68643508  0.58996631  0.76714734    -0.22900
C685        C  0.58565747  0.66621125  0.96780772    -0.18300
C686        C  0.58271131  0.67919533  0.82162388    -0.18300
C687        C  0.71970992  0.51271678  0.82384505    -0.18300
C688        C  0.71463068  0.50968106  0.46779233    -0.18300
H689        H  0.47046390  0.67919911  0.93683699     0.14600
H690        H  0.46771524  0.68113450  0.85700162     0.14600
H691        H  0.61547555  0.45786051  0.93985919     0.14600
H692        H  0.61081854  0.47096630  0.85906868     0.14600
H693        H  0.62460347  0.64555465  0.55088962     0.12900
H694        H  0.69106306  0.55053718  0.55176746     0.12900
H695        H  0.63748188  0.66808610  0.74130978     0.12900
H696        H  0.71138444  0.57939769  0.74089963     0.12900
H697        H  0.64208643  0.65657531  0.89367808     0.26200
H698        H  0.78328602  0.51476131  0.89479517     0.26200
N699        N  0.31108821  0.59640875  0.65360981    -0.36600
N700        N  0.38597994  0.64742803  0.58631764    -0.57200
N701        N  0.44759780  0.71375868  0.64889793    -0.36600
N702        N  0.38066131  0.65107599  0.71642337    -0.57200
C703        C  0.29275104  0.56538489  0.62132326     0.27000
C704        C  0.29092965  0.56430873  0.68789641     0.27000
C705        C  0.48189733  0.70376240  0.61656146     0.27000
C706        C  0.48078294  0.70611419  0.68239746     0.27000
C707        C  0.34171754  0.62634109  0.56423280     0.35600
C708        C  0.41660953  0.68978034  0.56182437     0.35600
C709        C  0.33389423  0.63129633  0.73945456     0.35600
C710        C  0.41066832  0.69458739  0.73680628     0.35600
C711        C  0.26298005  0.51211404  0.63503211    -0.21900
C712        C  0.26252683  0.51084273  0.67668140    -0.21900
C713        C  0.53577708  0.68484791  0.62976416    -0.21900
C714        C  0.53513184  0.68674176  0.67157852    -0.21900
C715        C  0.34665698  0.65192900  0.52449574    -0.22900
C716        C  0.39181637  0.69428254  0.52352148    -0.22900
C717        C  0.33642535  0.66035214  0.77610248    -0.22900
C718        C  0.38264856  0.70216807  0.77352574    -0.22900
C719        C  0.29393013  0.58965059  0.58058472    -0.18300
C720        C  0.28914995  0.58843372  0.72712087    -0.18300
C721        C  0.46391042  0.72310640  0.72147781    -0.18300
C722        C  0.46713887  0.72016099  0.57569434    -0.18300
H723        H  0.24211547  0.47774235  0.61758490     0.14600
H724        H  0.24224373  0.47384127  0.69500928     0.14600
H725        H  0.57256255  0.67450385  0.61099055     0.14600
H726        H  0.57109643  0.67759488  0.69153598     0.14600
H727        H  0.31872668  0.64369109  0.49907706     0.12900
H728        H  0.40042059  0.72610803  0.49784644     0.12900
H729        H  0.30793221  0.65337751  0.80236957     0.12900
H730        H  0.39154102  0.73506754  0.79594828     0.12900
H731        H  0.32779951  0.64170041  0.65192488     0.26200
H732        H  0.40631046  0.73233600  0.64772312     0.26200
C733        C  0.16311698  0.61411804  0.80205257     0.86500
C734        C  0.18435651  0.56129947  0.83071285    -0.53700
C735        C  0.20805090  0.51282066  0.81221593     0.09400
C736        C  0.19764415  0.51860468  0.76525993     0.20400
C737        C  0.21106153  0.62841640  0.77007607    -0.54500
C738        C  0.23357954  0.57915136  0.75249077     0.09500
C739        C  0.11464767  0.58475091  0.77850023    -0.54000
C740        C  0.13085824  0.53469793  0.75827822     0.10100
H741        H  0.18683044  0.56673701  0.86328870     0.14600
H742        H  0.20822426  0.47526826  0.75202756     0.00300
H743        H  0.22703900  0.67546926  0.76273684     0.14900
H744        H  0.07178698  0.60364741  0.77567769     0.14700
C745        C  0.18026451  0.64614363  0.50515462     0.86500
C746        C  0.22245996  0.64803437  0.54069184    -0.53700
C747        C  0.23789075  0.59251954  0.55791977     0.09400
C748        C  0.20133927  0.53880177  0.54186706     0.20400
C749        C  0.20379525  0.59865594  0.47703383    -0.54500
C750        C  0.21897753  0.54277961  0.49591068     0.09500
C751        C  0.12621701  0.61490163  0.52451250    -0.54000
C752        C  0.13632712  0.55929122  0.54489158     0.10100
H753        H  0.24341601  0.69085831  0.54894696     0.14600
H754        H  0.20578887  0.49308448  0.55742341     0.00300
H755        H  0.21480692  0.58010850  0.94347129     0.14900
H756        H  0.08459229  0.63662814  0.52539443     0.14700
C757        C  0.80731394  0.36791436  0.49938517     0.86500
C758        C  0.76380067  0.35893037  0.53495075    -0.53700
C759        C  0.74521237  0.41184760  0.55060295     0.09400
C760        C  0.77987882  0.46946527  0.53309112     0.20400
C761        C  0.78025308  0.41708582  0.46990639    -0.54500
C762        C  0.76278228  0.47027242  0.48745281     0.09500
C763        C  0.85882867  0.40059349  0.51846757    -0.54000
C764        C  0.84548552  0.45215232  0.53782224     0.10100
H765        H  0.74547546  0.31378390  0.54513065     0.14600
H766        H  0.77295689  0.51431082  0.54519311     0.00300
H767        H  0.78062052  0.39298646  0.94397343     0.14900
H768        H  0.90098827  0.38055287  0.52224038     0.14700
C769        C  0.78251314  0.36078950  0.79872412     0.86500
C770        C  0.77578431  0.41645939  0.82470453    -0.53700
C771        C  0.76376591  0.47189127  0.80375429     0.09400
C772        C  0.77356626  0.46677839  0.75712144     0.20400
C773        C  0.73302104  0.36386270  0.76825702    -0.54500
C774        C  0.72583895  0.41858227  0.74714171     0.09500
C775        C  0.83667239  0.37801104  0.77314546    -0.54000
C776        C  0.83364172  0.43408818  0.75149366     0.10100
H777        H  0.77434743  0.40985825  0.85759575     0.14600
H778        H  0.77386688  0.51162527  0.74001472     0.00300
H779        H  0.70393583  0.32439153  0.76438328     0.14900
H780        H  0.87366394  0.34839108  0.77151167     0.14700
N781        N  0.07822208  0.50723207  0.65043585    -0.36600
N782        N  0.98636776  0.48352660  0.71196369    -0.57200
N783        N  0.89734885  0.47689839  0.64645193    -0.36600
N784        N  0.98851429  0.50078214  0.58505749    -0.57200
C785        C  0.10275540  0.52970624  0.68436510     0.27000
C786        C  0.10278906  0.53977773  0.61753829     0.27000
C787        C  0.87085497  0.44688733  0.67952951     0.27000
C788        C  0.87336392  0.45358671  0.61263503     0.27000
C789        C  0.03185105  0.49056209  0.73774075     0.35600
C790        C  0.93795236  0.47166363  0.73564376     0.35600
C791        C  0.03612304  0.51456006  0.56124544     0.35600
C792        C  0.94317849  0.49458378  0.55928545     0.35600
C793        C  0.14085081  0.57799135  0.67264379    -0.21900
C794        C  0.14070645  0.58443028  0.63097016    -0.21900
C795        C  0.83164987  0.40311516  0.66669795    -0.21900
C796        C  0.83445487  0.40621600  0.62491857    -0.21900
C797        C  0.01190269  0.48253633  0.77779746    -0.22900
C798        C  0.95292783  0.47118938  0.77648131    -0.22900
C799        C  0.02084816  0.51659870  0.52038318    -0.22900
C800        C  0.96218938  0.50493945  0.51918302    -0.22900
C801        C  0.08951436  0.51153995  0.72591933    -0.18300
C802        C  0.09178376  0.53221911  0.57551929    -0.18300
C803        C  0.88650684  0.47231259  0.57100048    -0.18300
C804        C  0.88138405  0.45586099  0.72129800    -0.18300
H805        H  0.16365076  0.60867763  0.69192877     0.14600
H806        H  0.16317511  0.62108570  0.61301228     0.14600
H807        H  0.80570496  0.36994795  0.68551984     0.14600
H808        H  0.81273894  0.37402983  0.60633039     0.14600
H809        H  0.03704217  0.48569407  0.80529589     0.12900
H810        H  0.92448924  0.46247194  0.80275057     0.12900
H811        H  0.04881561  0.52679496  0.49402068     0.12900
H812        H  0.93673821  0.50269889  0.49176035     0.12900
H813        H  0.04910762  0.46971845  0.64959443     0.26200
H814        H  0.92719809  0.51372649  0.64715795     0.26200
N815        N  0.66330265  0.41051390  0.64770337    -0.36600
N816        N  0.59732964  0.35175470  0.58492515    -0.57200
N817        N  0.52251113  0.29013577  0.65200623    -0.36600
N818        N  0.58287098  0.36418917  0.71247185    -0.57200
C819        C  0.68997647  0.43618707  0.61356204     0.27000
C820        C  0.68160809  0.44313787  0.67924463     0.27000
C821        C  0.49501560  0.30327741  0.61641472     0.27000
C822        C  0.48629662  0.30594737  0.68206441     0.27000
C823        C  0.64317335  0.37209312  0.56175256     0.35600
C824        C  0.56595889  0.31179554  0.56295150     0.35600
C825        C  0.62092080  0.39458442  0.73545674     0.35600
C826        C  0.54382603  0.33397484  0.73839026     0.35600
C827        C  0.72360636  0.48675609  0.62389495    -0.21900
C828        C  0.71774805  0.49135552  0.66494584    -0.21900
C829        C  0.44316615  0.33102692  0.62385436    -0.21900
C830        C  0.43789406  0.33364536  0.66544842    -0.21900
C831        C  0.63860079  0.34781589  0.52362868    -0.22900
C832        C  0.59161660  0.30748171  0.52507489    -0.22900
C833        C  0.60428630  0.38665605  0.77618014    -0.22900
C834        C  0.55482144  0.34960530  0.77799133    -0.22900
C835        C  0.69013940  0.40981916  0.57516897    -0.18300
C836        C  0.67323197  0.42480375  0.72068817    -0.18300
C837        C  0.49711406  0.29731580  0.72425841    -0.18300
C838        C  0.51315854  0.28434011  0.57788131    -0.18300
H839        H  0.75129249  0.51763449  0.60545653     0.14600
H840        H  0.73838108  0.52676194  0.68158015     0.14600
H841        H  0.41277096  0.34769348  0.60158348     0.14600
H842        H  0.40233667  0.35288914  0.68171040     0.14600
H843        H  0.66626489  0.35778834  0.49719240     0.12900
H844        H  0.57981275  0.27895800  0.50076283     0.12900
H845        H  0.62544003  0.40630283  0.80181362     0.12900
H846        H  0.52885850  0.34022076  0.80514072     0.12900
H847        H  0.64175953  0.36764254  0.65032721     0.26200
H848        H  0.56147210  0.26720849  0.65574629     0.26200
C849        C  0.18651872  0.82396456  0.66598587    -0.03200
C850        C  0.22280015  0.87696017  0.65917853    -0.05800
C851        C  0.26754977  0.87680550  0.63009951    -0.20900
C852        C  0.27872124  0.82214821  0.61102966     0.24900
C853        C  0.30694403  0.80530917  0.09331500    -0.18400
C854        C  0.27200391  0.82197721  0.12565257    -0.08400
C855        C  0.29533439  0.82424822  0.56715755    -0.18700
C856        C  0.26197920  0.85678999  0.54027777    -0.23500
C857        C  0.22964845  0.82202980  0.51009160     0.26900
C858        C  0.28362239  0.76086398  0.95350159    -0.20200
C859        C  0.23169458  0.73486116  0.46788131    -0.09900
C860        C  0.17872996  0.71192185  0.48590424    -0.10400
C861        C  0.14501548  0.75432190  0.50567553    -0.03400
C862        C  0.17057570  0.80923911  0.51785782    -0.18500
H863        H  0.20792372  0.92137141  0.66778486     0.10600
H864        H  0.28672044  0.92048872  0.61813987     0.10700
H865        H  0.30994699  0.75672511  0.08775583     0.10300
H866        H  0.24936137  0.78579986  0.14429839     0.11400
H867        H  0.31452196  0.78249837  0.55709792     0.11500
H868        H  0.27927585  0.89824416  0.99783769     0.13400
H869        H  0.32732530  0.76537405  0.94135469     0.10000
H870        H  0.27658001  0.66661853  0.94006976     0.12100
H871        H  0.10313969  0.74048455  0.51845275     0.08700
H872        H  0.14683685  0.83642800  0.53857591     0.11400
C873        C  0.15542245  0.92557988  0.27802786    -0.03200
C874        C  0.05645954  0.03773206  0.70003474    -0.05800
C875        C  0.08266694  0.09305181  0.71053577    -0.20900
C876        C  0.09687104  0.13885747  0.67971052     0.24900
C877        C  0.07367416  0.13462600  0.64060268    -0.18400
C878        C  0.16376510  0.98206295  0.29587791    -0.08400
C879        C  0.15261203  0.17226445  0.68098987    -0.18700
C880        C  0.19976761  0.13693253  0.68107538    -0.23500
C881        C  0.24706515  0.14991546  0.65107378     0.26900
C882        C  0.26430268  0.21047071  0.63877200    -0.20200
C883        C  0.30506447  0.22151053  0.60788437    -0.09900
C884        C  0.32823809  0.17275324  0.58696144    -0.10400
C885        C  0.31138584  0.11173898  0.59945993    -0.03400
C886        C  0.27139926  0.10050972  0.63161016    -0.18500
H887        H  0.05231471  0.99982730  0.72307614     0.10600
H888        H  0.09993115  0.09609419  0.74095055     0.10700
H889        H  0.22215771  0.05937049  0.29672031     0.10300
H890        H  0.12706689  0.01063161  0.30121443     0.11400
H891        H  0.15436345  0.21829293  0.66588241     0.11500
H892        H  0.19578018  0.08936176  0.69374398     0.13400
H893        H  0.24647042  0.24963459  0.65279301     0.10000
H894        H  0.31909968  0.26884261  0.60057280     0.12100
H895        H  0.32972071  0.07278923  0.58547230     0.08700
H896        H  0.25829666  0.05318997  0.64059977     0.11400
C897        C  0.81734609  0.30475412  0.48191265    -0.03200
C898        C  0.76873141  0.26686223  0.47335978    -0.05800
C899        C  0.77303069  0.20247234  0.47387195    -0.20900
C900        C  0.82684507  0.17523144  0.47977755     0.24900
C901        C  0.87667525  0.21351008  0.48033429    -0.18400
C902        C  0.87213854  0.27765092  0.48154816    -0.08400
C903        C  0.83242327  0.10769390  0.48844660    -0.18700
C904        C  0.80029948  0.07563690  0.51774905    -0.23500
C905        C  0.81856395  0.01451705  0.53591196     0.26900
C906        C  0.81287492  0.00066488  0.57835549    -0.20200
C907        C  0.84358790  0.95198555  0.59758036    -0.09900
C908        C  0.87994224  0.91651784  0.57437078    -0.10400
C909        C  0.87867402  0.92520132  0.53144103    -0.03400
C910        C  0.84825868  0.97346341  0.51241297    -0.18500
H911        H  0.72621032  0.28622181  0.47101148     0.10600
H912        H  0.73415454  0.17393817  0.47153126     0.10700
H913        H  0.91899034  0.19341387  0.48312963     0.10300
H914        H  0.91160253  0.30459649  0.48450948     0.11400
H915        H  0.87077607  0.08712719  0.47630593     0.11500
H916        H  0.76620675  0.09902821  0.53322142     0.13400
H917        H  0.78921017  0.03101237  0.59708907     0.10000
H918        H  0.84375291  0.94660073  0.63064707     0.12100
H919        H  0.93263060  0.91815882  0.11009452     0.08700
H920        H  0.85132602  0.98105436  0.47949554     0.11400
C921        C  0.65999481  0.83202920  0.56513723    -0.03200
C922        C  0.70549035  0.85857356  0.54042390    -0.05800
C923        C  0.75986582  0.83215599  0.54183253    -0.20900
C924        C  0.77030821  0.78221985  0.56969145     0.24900
C925        C  0.72932206  0.76557259  0.60028792    -0.18400
C926        C  0.67492981  0.79161250  0.59871231    -0.08400
C927        C  0.82281875  0.74654003  0.56485833    -0.18700
C928        C  0.88219199  0.89363837  0.01152705    -0.23500
C929        C  0.94546059  0.90575956  0.00944696     0.26900
C930        C  0.98351576  0.85680254  0.01545152    -0.20200
C931        C  0.03663783  0.86700853  0.03390267    -0.09900
C932        C  0.05043631  0.92561661  0.04782672    -0.10400
C933        C  0.01905910  0.97654756  0.03258896    -0.03400
C934        C  0.96665778  0.96640453  0.01266803    -0.18500
H935        H  0.69650536  0.89046326  0.51467048     0.10600
H936        H  0.79131828  0.84590387  0.51814427     0.10700
H937        H  0.80559996  0.74716296  0.06931886     0.10300
H938        H  0.64257618  0.77161079  0.61992338     0.11400
H939        H  0.86205436  0.77253447  0.55528487     0.11500
H940        H  0.85415966  0.92381623  0.99347856     0.13400
H941        H  0.96905282  0.80973323  0.01114678     0.10000
H942        H  0.06156029  0.82720829  0.04369625     0.12100
H943        H  0.00075561  0.71577508  0.52293902     0.08700
H944        H  0.93890924  0.00487744  0.00577894     0.11400
C945        C  0.29585075  0.20688027  0.75189603    -0.03200
C946        C  0.27671847  0.26163135  0.73060163    -0.05800
C947        C  0.22245188  0.28516256  0.73850412    -0.20900
C948        C  0.18503390  0.25318515  0.76638178     0.24900
C949        C  0.19974579  0.19466110  0.78290543    -0.18400
C950        C  0.25456556  0.17132629  0.77559893    -0.08400
C951        C  0.13380192  0.28260764  0.78260327    -0.18700
C952        C  0.13960947  0.32718598  0.80935316    -0.23500
C953        C  0.09378324  0.33167321  0.84064608     0.26900
C954        C  0.10543288  0.30780018  0.88044299    -0.20200
C955        C  0.06199180  0.27390996  0.90280689    -0.09900
C956        C  0.00855724  0.26303977  0.88418977    -0.10400
C957        C  0.99244749  0.30482291  0.85192770    -0.03400
C958        C  0.03592970  0.33664650  0.82859989    -0.18500
H959        H  0.30645768  0.29184579  0.71260498     0.10600
H960        H  0.21150526  0.33034005  0.72522879     0.10700
H961        H  0.17101884  0.17041571  0.80500613     0.10300
H962        H  0.26742057  0.13045027  0.79345909     0.11400
H963        H  0.09281458  0.25705076  0.78111616     0.11500
H964        H  0.18241535  0.34661516  0.81509759     0.13400
H965        H  0.14969212  0.30510873  0.89088328     0.10000
H966        H  0.07462119  0.24496892  0.92919849     0.12100
H967        H  0.95009301  0.30002927  0.83838133     0.08700
H968        H  0.02574366  0.35566496  0.79828405     0.11400
C969        C  0.15374464  0.67270427  0.82377874    -0.03200
C970        C  0.11206155  0.71566142  0.81101461    -0.05800
C971        C  0.11793466  0.77724922  0.82119908    -0.20900
C972        C  0.16621006  0.79704742  0.84315857     0.24900
C973        C  0.20536300  0.75354439  0.85815072    -0.18400
C974        C  0.19908705  0.69237909  0.84885488    -0.08400
C975        C  0.17572659  0.86349696  0.84863532    -0.18700
C976        C  0.22764617  0.89016078  0.85645347    -0.23500
C977        C  0.23000330  0.95715465  0.85976111     0.26900
C978        C  0.21827005  0.97932251  0.89807366    -0.20200
C979        C  0.18357260  0.03068363  0.90063866    -0.09900
C980        C  0.15994705  0.05839031  0.86482496    -0.10400
C981        C  0.18306479  0.04431239  0.82680384    -0.03400
C982        C  0.21877144  0.99408837  0.82434596    -0.18500
H983        H  0.07755300  0.70343166  0.79079308     0.10600
H984        H  0.08680588  0.81027134  0.80961810     0.10700
H985        H  0.24250802  0.76682530  0.87552227     0.10300
H986        H  0.23336195  0.66171444  0.85827240     0.11400
H987        H  0.13851464  0.89287353  0.84422528     0.11500
H988        H  0.26696136  0.86437473  0.86023629     0.13400
H989        H  0.22726444  0.95132514  0.92572553     0.10000
H990        H  0.16744357  0.04145905  0.93042025     0.12100
H991        H  0.16582474  0.06420992  0.79853566     0.08700
H992        H  0.22798732  0.97750132  0.79453245     0.11400
C993        C  0.65540281  0.84505458  0.72527578    -0.03200
C994        C  0.68671509  0.79965724  0.70597079    -0.05800
C995        C  0.74717336  0.80366657  0.70354890    -0.20900
C996        C  0.77666953  0.85565060  0.71700631     0.24900
C997        C  0.74494780  0.90634548  0.72803968    -0.18400
C998        C  0.68471171  0.90115804  0.73243801    -0.08400
C999        C  0.83881927  0.85441392  0.72699151    -0.18700
C1000       C  0.85738993  0.81347769  0.75638310    -0.23500
C1001       C  0.90422071  0.83229612  0.78377560     0.26900
C1002       C  0.89071043  0.83765204  0.82523868    -0.20200
C1003       C  0.92413532  0.87680585  0.84854729    -0.09900
C1004       C  0.97154958  0.91027678  0.83048242    -0.10400
C1005       C  0.99069975  0.89578728  0.79141237    -0.03400
C1006       C  0.95676656  0.85764168  0.76791614    -0.18500
H1007       H  0.66535958  0.75679235  0.69864318     0.10600
H1008       H  0.77095046  0.76447951  0.69415917     0.10700
H1009       H  0.76719568  0.94750855  0.73766542     0.10300
H1010       H  0.66308902  0.93910828  0.74513405     0.11400
H1011       H  0.86437457  0.89659866  0.71971147     0.11500
H1012       H  0.82835750  0.77567549  0.76750371     0.13400
H1013       H  0.85040487  0.81800802  0.83805423     0.10000
H1014       H  0.90829374  0.88716431  0.87849123     0.12100
H1015       H  0.02788984  0.92011544  0.77714216     0.08700
H1016       H  0.96848268  0.85293006  0.73623647     0.11400
C1017       C  0.81941822  0.06916350  0.85384860    -0.03200
C1018       C  0.78140419  0.08067652  0.88586986    -0.05800
C1019       C  0.72193513  0.07932546  0.87930842    -0.20900
C1020       C  0.70050393  0.06600751  0.84086486     0.24900
C1021       C  0.73785792  0.04578445  0.81099859    -0.18400
C1022       C  0.79736563  0.04821987  0.81724941    -0.08400
C1023       C  0.64573189  0.09280681  0.82768772    -0.18700
C1024       C  0.64226447  0.15438162  0.82050427    -0.23500
C1025       C  0.69243126  0.19816410  0.82444488     0.26900
C1026       C  0.68964971  0.24314817  0.85288549    -0.20200
C1027       C  0.73129883  0.29106469  0.85235018    -0.09900
C1028       C  0.77504289  0.29724094  0.82151253    -0.10400
C1029       C  0.78351027  0.24554793  0.79826812    -0.03400
C1030       C  0.74138344  0.19762369  0.79864528    -0.18500
H1031       H  0.79767297  0.09545417  0.91465639     0.10600
H1032       H  0.69321945  0.09525080  0.90251128     0.10700
H1033       H  0.72169120  0.03567529  0.78117443     0.10300
H1034       H  0.82618542  0.03698810  0.79269704     0.11400
H1035       H  0.60820231  0.06281312  0.82338407     0.11500
H1036       H  0.60064384  0.17339891  0.81245091     0.13400
H1037       H  0.65316090  0.24342915  0.87388270     0.10000
H1038       H  0.72276146  0.32775092  0.87215195     0.12100
H1039       H  0.81619118  0.24774020  0.77429920     0.08700
H1040       H  0.74454995  0.16328500  0.77625352     0.11400
loop_ 
_geom_bond_atom_site_label_1 
_geom_bond_atom_site_label_2 
_geom_bond_distance 
_geom_bond_site_symmetry_2 
_ccdc_geom_bond_type 
O1           Ni9   1.903   1_455  S
O1           C11   1.279       .  A
O2           Ni9   1.896       .  S
O2           C12   1.278       .  A
O3           Ni9   1.942       .  S
O3           C13   1.288   1_545  A
O4           Ni9   1.939       .  S
O4           C14   1.284   1_655  A
O5          Ni10   1.882       .  S
O5           C14   1.276       .  A
O6          Ni10   1.889       .  S
O6           C13   1.276   1_445  A
O7          Ni10   1.915   1_655  S
O7           C12   1.282       .  A
O8          Ni10   1.912       .  S
O8           C11   1.282       .  A
Ni9         Ni10   2.387   1_655  S
C11         C460   1.471       .  S
C12         C497   1.470       .  S
C13         C484   1.482       .  S
C14         C436   1.465       .  S
O15         Ni23   1.879       .  S
O15          C25   1.274       .  A
O16         Ni23   1.878   1_655  S
O16          C26   1.273       .  A
O17         Ni23   1.920       .  S
O17          C27   1.285       .  A
O18         Ni23   1.920       .  S
O18          C28   1.282       .  A
O19         Ni24   1.894       .  S
O19         C548   1.278       .  A
O20         Ni24   1.911       .  S
O20         C547   1.277       .  A
O21         Ni24   1.937       .  S
O21         C546   1.286   1_455  A
O22         Ni24   1.926       .  S
O22         C545   1.285       .  A
Ni23       Ni544   2.388       .  S
Ni24       Ni543   2.387       .  S
C25         O542   1.286       .  A
C25         C849   1.468       .  S
C26         O541   1.290       .  A
C26         C908   1.482       .  S
C27         O540   1.274       .  A
C27         C353   1.463   1_565  S
C28         O539   1.280   1_455  A
C28         C412   1.477   1_455  S
N29          C34   1.354       .  A
N29          C33   1.354       .  A
N29          H61   1.045       .  S
N30         C557   1.349       .  A
N30         C558   1.364       .  A
N31          C36   1.343       .  A
N31          C35   1.342       .  A
N31          H62   1.046       .  S
N32          C39   1.345       .  A
N32          C40   1.364       .  A
C33          C41   1.381       .  A
C33          C49   1.409       .  A
C34          C50   1.404       .  A
C34          C42   1.379       .  A
C35          C43   1.384       .  A
C35         C572   1.393       .  A
C36          C51   1.403       .  A
C36          C44   1.390       .  A
C37         N550   1.349   1_554  A
C37          C45   1.390       .  A
C37         C569   1.435   1_554  A
C38         N550   1.364       .  A
C38          C52   1.434       .  A
C38          C46   1.387   1_556  A
C39          C47   1.389       .  A
C39          C50   1.432       .  A
C40          C48   1.383       .  A
C40          C51   1.429       .  A
C41          C42   1.373       .  A
C41          H53   1.077       .  S
C42          H54   1.075       .  S
C43          C44   1.371       .  A
C43          H55   1.083       .  S
C44          H56   1.083       .  S
C45          C46   1.389       .  A
C45          H57   1.082       .  S
C46          H58   1.072       .  S
C47          C48   1.382       .  A
C47          H59   1.082       .  S
C48          H60   1.066       .  S
C49         C557   1.432       .  A
C49          C94   1.522       .  S
C50         C101   1.506       .  S
C51         C215   1.540       .  S
C52         C555   1.393       .  A
C52         C230   1.535       .  S
C63          C64   1.527       .  S
C63          C69   1.527       .  S
C63          C67   1.537       .  S
C63         C473   1.532       .  S
C64          H71   1.088       .  S
C64          C65   1.348       .  D
C65         C166   1.513       .  S
C65          C66   1.558       .  S
C66          C70   1.596       .  S
C66          C68   1.571       .  S
C66          H72   1.082       .  S
C67          H73   1.083       .  S
C67          C68   1.385       .  D
C68         C201   1.535       .  S
C69          H74   1.080       .  S
C69          C70   1.365       .  D
C70         C133   1.540       .  S
C75          C79   1.540       .  S
C75         C596   1.519       .  S
C75         C601   1.523       .  S
C75         C401   1.530       .  S
C76         C595   1.515       .  S
C76          H83   1.086       .  S
C76          C77   1.369       .  D
C77         C134   1.528       .  S
C77         C598   1.594       .  S
C78          C80   1.563       .  S
C78         C597   1.584       .  S
C78         C602   1.566   1_554  S
C78         H604   1.092   1_554  S
C79          H85   1.085       .  S
C79          C80   1.383       .  D
C80         C202   1.527       .  S
C81         C595   1.529       .  S
C81          H86   1.087       .  S
C81          C82   1.351       .  D
C82         C165   1.521       .  S
C82         C598   1.560       .  S
H84         C598   1.070       .  S
C87          C91   1.521       .  S
C87         C608   1.507       .  S
C87         C613   1.544       .  S
C87         C364   1.524       .  S
C88         C607   1.520       .  S
C88          H95   1.084       .  S
C88          C89   1.374       .  D
C89         C131   1.545       .  S
C89         C610   1.605       .  S
C90          C92   1.571       .  S
C90         C609   1.602       .  S
C90         C614   1.568       .  S
C90         H616   1.080   1_554  S
C91          H97   1.080       .  S
C91          C92   1.364       .  D
C92         C318   1.536       .  S
C93         C607   1.529       .  S
C93          H98   1.086       .  S
C93          C94   1.360       .  D
C94         C610   1.564       .  S
H96         C610   1.075       .  S
C99         C100   1.514       .  S
C99         C105   1.523       .  S
C99         C103   1.533       .  S
C99         C425   1.521       .  S
C100        H107   1.090       .  S
C100        C101   1.348       .  D
C101        C102   1.560       .  S
C102        C106   1.597       .  S
C102        C104   1.563       .  S
C102        H108   1.092       .  S
C103        H109   1.084       .  S
C103        C104   1.374       .  D
C104        C317   1.527       .  S
C105        H110   1.085       .  S
C105        C106   1.375       .  D
C106        C132   1.534       .  S
N111        C116   1.357       .  A
N111        C115   1.361       .  A
N111        H143   1.045       .  S
N112        C639   1.367       .  A
N112        C640   1.365   1_545  A
N113        C118   1.356       .  A
N113        C117   1.352       .  A
N113        H144   1.044       .  S
N114        C121   1.365       .  A
N114        C122   1.367   1_545  A
C115        C123   1.379       .  A
C115        C131   1.416       .  A
C116        C132   1.418       .  A
C116        C124   1.381       .  A
C117        C125   1.382       .  A
C117        C134   1.407       .  A
C118        C133   1.408       .  A
C118        C126   1.379       .  A
C119        N632   1.366   1_545  A
C119        C127   1.388   1_556  A
C119        C651   1.441       .  A
C120        N632   1.365       .  A
C120        C128   1.386   1_556  A
C120        C654   1.437       .  A
C121        C129   1.388       .  A
C121        C132   1.439       .  A
C122        C130   1.386       .  A
C122        C133   1.440       .  A
C123        C124   1.378       .  A
C123        H135   1.078       .  S
C124        H136   1.077       .  S
C125        C126   1.378       .  A
C125        H137   1.078       .  S
C126        H138   1.078       .  S
C127        C128   1.372   1_545  A
C127        H139   1.082       .  S
C128        H140   1.082       .  S
C129        C130   1.380   1_545  A
C129        H141   1.082       .  S
C130        H142   1.082       .  S
C131        C639   1.439       .  A
C134        C640   1.439       .  A
N145        C150   1.356       .  A
N145        C149   1.353       .  A
N145        H177   1.045       .  S
N146        C673   1.352       .  A
N146        C674   1.369       .  A
N147        C152   1.346       .  A
N147        C151   1.345       .  A
N147        H178   1.046       .  S
N148        C155   1.346       .  A
N148        C156   1.361       .  A
C149        C157   1.383       .  A
C149        C165   1.411       .  A
C150        C166   1.407       .  A
C150        C158   1.379       .  A
C151        C159   1.389       .  A
C151        C688   1.397       .  A
C152        C167   1.399       .  A
C152        C160   1.385       .  A
C153        N666   1.353       .  A
C153        C161   1.382   1_556  A
C153        C685   1.432       .  A
C154        N666   1.367       .  A
C154        C168   1.444       .  A
C154        C162   1.387   1_556  A
C155        C163   1.389       .  A
C155        C166   1.431       .  A
C156        C164   1.389       .  A
C156        C167   1.433       .  A
C157        C158   1.377       .  A
C157        H169   1.078       .  S
C158        H170   1.079       .  S
C159        C160   1.368       .  A
C159        H171   1.083       .  S
C160        H172   1.083       .  S
C161        C162   1.381       .  A
C161        H173   1.082       .  S
C162        H174   1.063       .  S
C163        C164   1.391       .  A
C163        H175   1.082       .  S
C164        H176   1.075       .  S
C165        C673   1.437       .  A
C167        C251   1.530       .  S
C168        C671   1.390       .  A
C168        C242   1.537       .  S
N179        C184   1.357       .  A
N179        C183   1.358       .  A
N179        H211   1.042       .  S
N180        C187   1.347       .  A
N180        C188   1.358       .  A
N181        C186   1.353       .  A
N181        C185   1.351       .  A
N181        H212   1.046       .  S
N182        C189   1.356       .  A
N182        C190   1.370       .  A
C183        C191   1.369       .  A
C183        C199   1.400       .  A
C184        C200   1.428       .  A
C184        C192   1.392       .  A
C185        C193   1.387       .  A
C185        C202   1.409       .  A
C186        C201   1.407       .  A
C186        C194   1.385       .  A
C187        C199   1.421       .  A
C187        C195   1.385       .  A
C188        C202   1.426       .  A
C188        C196   1.383       .  A
C189        C197   1.390       .  A
C189        C200   1.451       .  A
C190        C198   1.378       .  A
C190        C201   1.433       .  A
C191        C192   1.355       .  A
C191        H203   1.074       .  S
C192        H204   1.059       .  S
C193        C194   1.371       .  A
C193        H205   1.083       .  S
C194        H206   1.083       .  S
C195        C196   1.382       .  A
C195        H207   1.082       .  S
C196        H208   1.072       .  S
C197        C198   1.372       .  A
C197        H209   1.070       .  S
C198        H210   1.073       .  S
C199        C227   1.504       .  S
C200        C218   1.527       .  S
C213        C214   1.530       .  S
C213        C219   1.520       .  S
C213        C217   1.537       .  S
C213        C449   1.522       .  S
C214        H221   1.082       .  S
C214        C215   1.366       .  D
C215        C216   1.547       .  S
C216        C220   1.599       .  S
C216        C218   1.559       .  S
C216        H222   1.084       .  S
C217        H223   1.086       .  S
C217        C218   1.366       .  D
C219        H224   1.085       .  S
C219        C220   1.372       .  D
C220        C281   1.529       .  S
C225        C226   1.527       .  S
C225        C231   1.527       .  S
C225        C229   1.527   1_554  S
C225        C340   1.524   1_554  S
C226        H233   1.089       .  S
C226        C227   1.352       .  D
C227        C228   1.557       .  S
C228        C232   1.583       .  S
C228        C230   1.556   1_554  S
C228        H234   1.090       .  S
C229        H755   1.084       .  S
C229        C230   1.385       .  D
C231        H236   1.085       .  S
C231        C232   1.367       .  D
C232        C282   1.520       .  S
H235        C749   1.084       .  S
C237        C238   1.538       .  S
C237        C243   1.529       .  S
C237        C241   1.547   1_554  S
C237        C377   1.542   1_554  S
C238        H245   1.086       .  S
C238        C239   1.360       .  D
C239        C315   1.503       .  S
C239        C240   1.547       .  S
C240        C244   1.577       .  S
C240        C242   1.540   1_554  S
C240        H246   1.088       .  S
C241        H767   1.085       .  S
C241        C242   1.391       .  D
C243        H248   1.084       .  S
C243        C244   1.356       .  D
C244        C283   1.526       .  S
H247        C761   1.085       .  S
C249        C250   1.532       .  S
C249        C255   1.523       .  S
C249        C253   1.524       .  S
C249        C508   1.523       .  S
C250        H257   1.081       .  S
C250        C251   1.387       .  D
C251        C252   1.554       .  S
C252        C256   1.591       .  S
C252        C254   1.550       .  S
C252        H258   1.099       .  S
C253        H259   1.089       .  S
C253        C254   1.346       .  D
C254        C316   1.497       .  S
C255        H260   1.086       .  S
C255        C256   1.366       .  D
C256        C284   1.524       .  S
N261        C266   1.363       .  A
N261        C265   1.362       .  A
N261        H293   1.043       .  S
N262        C269   1.364   1_655  A
N262        C270   1.364       .  A
N263        C268   1.363       .  A
N263        C267   1.363       .  A
N263        H294   1.043       .  S
N264        C271   1.362   1_655  A
N264        C272   1.362       .  A
C265        C273   1.385       .  A
C265        C281   1.425       .  A
C266        C282   1.422       .  A
C266        C274   1.384       .  A
C267        C275   1.384       .  A
C267        C284   1.421       .  A
C268        C283   1.425       .  A
C268        C276   1.384       .  A
C269        C281   1.434       .  A
C269        C277   1.387       .  A
C270        C284   1.432       .  A
C270        C278   1.386       .  A
C271        C279   1.386       .  A
C271        C282   1.428       .  A
C272        C280   1.387       .  A
C272        C283   1.429       .  A
C273        C274   1.372       .  A
C273        H285   1.078       .  S
C274        H286   1.082       .  S
C275        C276   1.366       .  A
C275        H287   1.081       .  S
C276        H288   1.074       .  S
C277        C278   1.380   1_455  A
C277        H289   1.082       .  S
C278        H290   1.082       .  S
C279        C280   1.378   1_455  A
C279        H291   1.082   1_554  S
C280        H292   1.082   1_554  S
N295        C300   1.358       .  A
N295        C299   1.353       .  A
N295        H327   1.038       .  S
N296        C303   1.349       .  A
N296        C304   1.366       .  A
N297        C302   1.347       .  A
N297        C301   1.354       .  A
N297        H328   1.045       .  S
N298        C305   1.344       .  A
N298        C306   1.356       .  A
C299        C307   1.392       .  A
C299        C315   1.421       .  A
C300        C316   1.398       .  A
C300        C308   1.372       .  A
C301        C309   1.386       .  A
C301        C318   1.412       .  A
C302        C317   1.407       .  A
C302        C310   1.385       .  A
C303        C315   1.445       .  A
C303        C311   1.396       .  A
C304        C318   1.423       .  A
C304        C312   1.379       .  A
C305        C313   1.385       .  A
C305        C316   1.422       .  A
C306        C314   1.382       .  A
C306        C317   1.423       .  A
C307        C308   1.357       .  A
C307        H319   1.067       .  S
C308        H320   1.078       .  S
C309        C310   1.375       .  A
C309        H321   1.082       .  S
C310        H322   1.082       .  S
C311        C312   1.383       .  A
C311        H323   1.080   1_554  S
C312        H324   1.078       .  S
C313        C314   1.383       .  A
C313        H325   1.081       .  S
C314        H326   1.067       .  S
C329        C545   1.481       .  S
C329        C330   1.410       .  A
C329        C854   1.405       .  A
C330        C331   1.397       .  A
C330        H343   1.083       .  S
C331        C332   1.402       .  A
C331        H344   1.084       .  S
C332        C853   1.405       .  A
C332        C335   1.479       .  S
C333        C334   1.401       .  A
C333        C852   1.406       .  A
C333        H345   1.082       .  S
C334        C849   1.403       .  A
C334        H346   1.083       .  S
C335        H347   1.088       .  S
C335        C336   1.352   1_554  D
C336        C337   1.477       .  S
C336        H868   1.087       .  S
C337        C342   1.403       .  A
C337        C858   1.397       .  A
C338        C857   1.397       .  A
C338        C859   1.397       .  A
C338        H349   1.083       .  S
C339        C340   1.417       .  A
C339        C858   1.396       .  A
C339        H870   1.082       .  S
C340        C341   1.408       .  A
C341        C342   1.398       .  A
C341        H351   1.080   1_556  S
C342        H352   1.084   1_556  S
H348        C856   1.087       .  S
H350        C859   1.081       .  S
C353        C358   1.400       .  A
C353        C874   1.405       .  A
C354        C355   1.402       .  A
C354        C873   1.407       .  A
C354        H367   1.084       .  S
C355        C356   1.403       .  A
C355        H368   1.084       .  S
C356        C357   1.407   1_565  A
C356        C359   1.481   1_565  S
C357        C878   1.395   1_545  A
C357        H889   1.075       .  S
C358        C877   1.391       .  A
C358        H370   1.083       .  S
C359        H371   1.084   1_545  S
C359        C360   1.352       .  D
C360        C361   1.482       .  S
C360        H372   1.087       .  S
C361        C362   1.405       .  A
C361        C366   1.402       .  A
C362        C363   1.397       .  A
C362        H373   1.083       .  S
C363        C364   1.405       .  A
C363        H374   1.079       .  S
C364        C365   1.413       .  A
C365        C366   1.396       .  A
C365        H375   1.083       .  S
C366        H376   1.081       .  S
H369        C877   1.084       .  S
C377        C378   1.414       .  A
C377        C382   1.410       .  A
C378        C379   1.400   1_556  A
C378        H391   1.081       .  S
C379        C380   1.401       .  A
C379        H392   1.083       .  S
C380        C381   1.402       .  A
C380        C383   1.483       .  S
C381        C382   1.401   1_554  A
C381        H393   1.083       .  S
C382        H394   1.081       .  S
C383        H395   1.083       .  S
C383        C384   1.351       .  D
C384        C385   1.486       .  S
C384        H396   1.087       .  S
C385        C386   1.404       .  A
C385        C390   1.401   1_545  A
C386        C387   1.403       .  A
C386        H397   1.083       .  S
C387        C388   1.406   1_545  A
C387        H398   1.083       .  S
C388        C546   1.474       .  S
C388        C389   1.406       .  A
C389        C390   1.400       .  A
C389        H919   1.084       .  S
C390        H400   1.079       .  S
H399        C909   1.084       .  S
C401        C402   1.413       .  A
C401        C406   1.409       .  A
C402        C403   1.396       .  A
C402        H415   1.077       .  S
C403        C404   1.401       .  A
C403        H416   1.083       .  S
C404        C405   1.401       .  A
C404        C407   1.477       .  S
C405        C406   1.396       .  A
C405        H937   1.083       .  S
C406        H418   1.083       .  S
C407        H419   1.087       .  S
C407        C928   1.351       .  D
C408        C409   1.473       .  S
C408        H420   1.086       .  S
C408        C927   1.352       .  D
C409        C410   1.399       .  A
C409        C414   1.405       .  A
C410        C411   1.397       .  A
C410        H421   1.084       .  S
C411        C412   1.408       .  A
C411        H422   1.084       .  S
C412        C413   1.405       .  A
C413        C414   1.395       .  A
C413        H943   1.082   1_655  S
C414        H424   1.083       .  S
H417        C925   1.083       .  S
H423        C933   1.083   1_545  S
C425        C426   1.418       .  A
C425        C430   1.407       .  A
C426        C427   1.396       .  A
C426        H439   1.080       .  S
C427        C428   1.396       .  A
C427        H440   1.083       .  S
C428        C429   1.401       .  A
C428        C431   1.474       .  S
C429        C430   1.396       .  A
C429        H441   1.084       .  S
C430        H442   1.078       .  S
C431        H443   1.088       .  S
C431        C432   1.351       .  D
C432        C433   1.476       .  S
C432        H444   1.088       .  S
C433        C434   1.404       .  A
C433        C438   1.403       .  A
C434        C435   1.400       .  A
C434        H445   1.084       .  S
C435        C436   1.403       .  A
C435        H446   1.084       .  S
C436        C437   1.407   1_455  A
C437        C438   1.399   1_655  A
C437        H447   1.084       .  S
C438        H448   1.083       .  S
C449        C450   1.404       .  A
C449        C454   1.410       .  A
C450        C451   1.409       .  A
C450        H463   1.081       .  S
C451        C452   1.412       .  A
C451        H464   1.083       .  S
C452        C453   1.394       .  A
C452        C455   1.481       .  S
C453        C454   1.377       .  A
C453        H465   1.080       .  S
C454        H466   1.079       .  S
C455        H467   1.088       .  S
C455        C456   1.355       .  D
C456        C457   1.467       .  S
C456        H468   1.083       .  S
C457        C458   1.401       .  A
C457        C462   1.399   1_565  A
C458        C459   1.391   1_565  A
C458        H469   1.081       .  S
C459        C460   1.405       .  A
C459        H470   1.083       .  S
C460        C461   1.405       .  A
C461        C462   1.396       .  A
C461        H471   1.083       .  S
C462        H472   1.083   1_545  S
C473        C474   1.414       .  A
C473        C478   1.410       .  A
C474        C475   1.400       .  A
C474        H487   1.083       .  S
C475        C476   1.400       .  A
C475        H488   1.083       .  S
C476        C477   1.398       .  A
C476        C479   1.476       .  S
C477        C478   1.397       .  A
C477        H489   1.079       .  S
C478        H490   1.078       .  S
C479        H491   1.087       .  S
C479        C480   1.350       .  D
C480        C481   1.482       .  S
C480        H492   1.088       .  S
C481        C482   1.405       .  A
C481        C486   1.401       .  A
C482        C483   1.402       .  A
C482        H493   1.083       .  S
C483        C484   1.405       .  A
C483        H494   1.083       .  S
C484        C485   1.411       .  A
C485        C486   1.396       .  A
C485        H495   1.083   1_655  S
C486        H496   1.083       .  S
C497        C498   1.406       .  A
C497        C502   1.405       .  A
C498        C499   1.390       .  A
C498        H511   1.083       .  S
C499        C500   1.399       .  A
C499        H512   1.084       .  S
C500        C501   1.400       .  A
C500        C503   1.467       .  S
C501        C502   1.395       .  A
C501        H513   1.084       .  S
C502        H514   1.083       .  S
C503        H515   1.085       .  S
C503        C504   1.346       .  D
C504        C505   1.489       .  S
C504        H516   1.086       .  S
C505        C506   1.396       .  A
C505        C510   1.404       .  A
C506        C507   1.399       .  A
C506        H517   1.083       .  S
C507        C508   1.418       .  A
C507        H518   1.080       .  S
C508        C509   1.411       .  A
C509        C510   1.397       .  A
C509        H519   1.082       .  S
C510        H520   1.081       .  S
O521       Ni529   1.907   1_455  S
O521        C531   1.281       .  A
O522       Ni529   1.906       .  S
O522        C532   1.279       .  A
O523       Ni529   1.941   1_565  S
O523        C533   1.287       .  A
O524       Ni529   1.938       .  S
O524        C534   1.285       .  A
O525       Ni530   1.889       .  S
O525        C534   1.278       .  A
O526       Ni530   1.888       .  S
O526        C533   1.276   1_545  A
O527       Ni530   1.904       .  S
O527        C532   1.280       .  A
O528       Ni530   1.907   1_455  S
O528        C531   1.280       .  A
Ni529      Ni530   2.387       .  S
C531        C980   1.472       .  S
C532       C1017   1.462       .  S
C533       C1004   1.474       .  S
C534        C956   1.474   1_655  S
O535       Ni543   1.906       .  S
O535        C545   1.279       .  A
O536       Ni543   1.898   1_545  S
O536        C546   1.276   1_445  A
O537       Ni543   1.911       .  S
O537        C547   1.285       .  A
O538       Ni543   1.930       .  S
O538        C548   1.284       .  A
O539       Ni544   1.903   1_655  S
O540       Ni544   1.892       .  S
O541       Ni544   1.956   1_655  S
O542       Ni544   1.948       .  S
C547        C873   1.471       .  S
C548        C932   1.474       .  S
N549        C554   1.359       .  A
N549        C553   1.360       .  A
N549        H581   1.045       .  S
N551        C556   1.345       .  A
N551        C555   1.346       .  A
N551        H582   1.045       .  S
N552        C559   1.340       .  A
N552        C560   1.364       .  A
C553        C561   1.387       .  A
C553        C569   1.424       .  A
C554        C570   1.410       .  A
C554        C562   1.378       .  A
C555        C563   1.381       .  A
C556        C571   1.403       .  A
C556        C564   1.391       .  A
C557        C565   1.384       .  A
C558        C572   1.426       .  A
C558        C566   1.380       .  A
C559        C567   1.391       .  A
C559        C570   1.426       .  A
C560        C568   1.382       .  A
C560        C571   1.424       .  A
C561        C562   1.380       .  A
C561        H573   1.079       .  S
C562        H574   1.082       .  S
C563        C564   1.366       .  A
C563        H575   1.082       .  S
C564        H576   1.083       .  S
C565        C566   1.378       .  A
C565        H577   1.069       .  S
C566        H578   1.068       .  S
C567        C568   1.387       .  A
C567        H579   1.081       .  S
C568        H580   1.073       .  S
C569        C614   1.532   1_556  S
C570        C621   1.498       .  S
C571        C735   1.535       .  S
C572        C750   1.530       .  S
C583        C584   1.524       .  S
C583        C589   1.524       .  S
C583        C587   1.538       .  S
C583        C993   1.533       .  S
C584        H591   1.087       .  S
C584        C585   1.349       .  D
C585        C686   1.515       .  S
C585        C586   1.562       .  S
C586        C590   1.604       .  S
C586        C588   1.564       .  S
C586        H592   1.078       .  S
C587        H593   1.084       .  S
C587        C588   1.387       .  D
C588        C721   1.548       .  S
C589        H594   1.081       .  S
C589        C590   1.367       .  D
C590        C653   1.546       .  S
C595        C599   1.528       .  S
C595        C921   1.515       .  S
C596        H603   1.079       .  S
C596        C597   1.360       .  D
C597        C654   1.530   1_554  S
C598        C600   1.563       .  S
C599        H605   1.082       .  S
C599        C600   1.374       .  D
C600        C722   1.532       .  S
C601        H606   1.088   1_554  S
C601        C602   1.356   1_554  D
C602        C685   1.510       .  S
C607        C611   1.518       .  S
C607        C884   1.514       .  S
C608        H615   1.086       .  S
C608        C609   1.363       .  D
C609        C651   1.546   1_554  S
C610        C612   1.572       .  S
C611        H617   1.087       .  S
C611        C612   1.362       .  D
C612        C838   1.538       .  S
C613        H618   1.082       .  S
C613        C614   1.376       .  D
C619        C620   1.517       .  S
C619        C625   1.527       .  S
C619        C623   1.530       .  S
C619        C945   1.522       .  S
C620        H627   1.090       .  S
C620        C621   1.348       .  D
C621        C622   1.553       .  S
C622        C626   1.596       .  S
C622        C624   1.563       .  S
C622        H628   1.087       .  S
C623        H629   1.080       .  S
C623        C624   1.371       .  D
C624        C837   1.536       .  S
C625        H630   1.085       .  S
C625        C626   1.380       .  D
C626        C652   1.534       .  S
N631        C636   1.357       .  A
N631        C635   1.362       .  A
N631        H663   1.044       .  S
N633        C638   1.357       .  A
N633        C637   1.355       .  A
N633        H664   1.044       .  S
N634        C641   1.366   1_565  A
N634        C642   1.369       .  A
C635        C643   1.377       .  A
C635        C651   1.416       .  A
C636        C652   1.422       .  A
C636        C644   1.385       .  A
C637        C645   1.379       .  A
C637        C654   1.410       .  A
C638        C653   1.412       .  A
C638        C646   1.380       .  A
C639        C647   1.387       .  A
C640        C648   1.387       .  A
C641        C649   1.387       .  A
C641        C652   1.440       .  A
C642        C650   1.386       .  A
C642        C653   1.444       .  A
C643        C644   1.372       .  A
C643        H655   1.076       .  S
C644        H656   1.072       .  S
C645        C646   1.379       .  A
C645        H657   1.077       .  S
C646        H658   1.077       .  S
C647        C648   1.378   1_545  A
C647        H659   1.082       .  S
C648        H660   1.082       .  S
C649        C650   1.381   1_545  A
C649        H661   1.082       .  S
C650        H662   1.082       .  S
N665        C670   1.352       .  A
N665        C669   1.350       .  A
N665        H697   1.045       .  S
N667        C672   1.345       .  A
N667        C671   1.343       .  A
N667        H698   1.045       .  S
N668        C675   1.347       .  A
N668        C676   1.362       .  A
C669        C677   1.379       .  A
C669        C685   1.400       .  A
C670        C686   1.403       .  A
C670        C678   1.380       .  A
C671        C679   1.387       .  A
C672        C687   1.399       .  A
C672        C680   1.384       .  A
C673        C681   1.387       .  A
C674        C688   1.443       .  A
C674        C682   1.386       .  A
C675        C683   1.388       .  A
C675        C686   1.436       .  A
C676        C684   1.386       .  A
C676        C687   1.433       .  A
C677        C678   1.374       .  A
C677        H689   1.075       .  S
C678        H690   1.078       .  S
C679        C680   1.368       .  A
C679        H691   1.083       .  S
C680        H692   1.082       .  S
C681        C682   1.385       .  A
C681        H693   1.081       .  S
C682        H694   1.070       .  S
C683        C684   1.388       .  A
C683        H695   1.076       .  S
C684        H696   1.071       .  S
C687        C771   1.537       .  S
C688        C762   1.542       .  S
N699        C704   1.356       .  A
N699        C703   1.355       .  A
N699        H731   1.043       .  S
N700        C707   1.346       .  A
N700        C708   1.360       .  A
N701        C706   1.350       .  A
N701        C705   1.350       .  A
N701        H732   1.046       .  S
N702        C709   1.357       .  A
N702        C710   1.368       .  A
C703        C711   1.376       .  A
C703        C719   1.404       .  A
C704        C720   1.419       .  A
C704        C712   1.388       .  A
C705        C713   1.386       .  A
C705        C722   1.412       .  A
C706        C721   1.410       .  A
C706        C714   1.385       .  A
C707        C719   1.424       .  A
C707        C715   1.386       .  A
C708        C722   1.418       .  A
C708        C716   1.385       .  A
C709        C717   1.393       .  A
C709        C720   1.449       .  A
C710        C718   1.383       .  A
C710        C721   1.434       .  A
C711        C712   1.364       .  A
C711        H723   1.075       .  S
C712        H724   1.067       .  S
C713        C714   1.374       .  A
C713        H725   1.081       .  S
C714        H726   1.078       .  S
C715        C716   1.370       .  A
C715        H727   1.080       .  S
C716        H728   1.068       .  S
C717        C718   1.381       .  A
C717        H729   1.080       .  S
C718        H730   1.074       .  S
C719        C747   1.500       .  S
C720        C738   1.525       .  S
C733        C734   1.529       .  S
C733        C739   1.516       .  S
C733        C737   1.530       .  S
C733        C969   1.514       .  S
C734        H741   1.084       .  S
C734        C735   1.370       .  D
C735        C736   1.558       .  S
C736        C740   1.607       .  S
C736        C738   1.566       .  S
C736        H742   1.092       .  S
C737        H743   1.087       .  S
C737        C738   1.359       .  D
C739        H744   1.085       .  S
C739        C740   1.366       .  D
C740        C801   1.534       .  S
C745        C746   1.529       .  S
C745        C751   1.519       .  S
C745        C749   1.532       .  S
C745        C860   1.524       .  S
C746        H753   1.086       .  S
C746        C747   1.355       .  D
C747        C748   1.543       .  S
C748        C752   1.582       .  S
C748        C750   1.554       .  S
C748        H754   1.093       .  S
C749        C750   1.380       .  D
C751        H756   1.083       .  S
C751        C752   1.368       .  D
C752        C802   1.512       .  S
C757        C758   1.532       .  S
C757        C763   1.528       .  S
C757        C761   1.542       .  S
C757        C897   1.540       .  S
C758        H765   1.087       .  S
C758        C759   1.364       .  D
C759        C835   1.498       .  S
C759        C760   1.542       .  S
C760        C764   1.578       .  S
C760        C762   1.551       .  S
C760        H766   1.088       .  S
C761        C762   1.388       .  D
C763        H768   1.082       .  S
C763        C764   1.361       .  D
C764        C803   1.527       .  S
C769        C770   1.531       .  S
C769        C775   1.524       .  S
C769        C773   1.526       .  S
C769       C1028   1.530       .  S
C770        H777   1.079       .  S
C770        C771   1.382       .  D
C771        C772   1.555       .  S
C772        C776   1.590       .  S
C772        C774   1.550       .  S
C772        H778   1.091       .  S
C773        H779   1.088       .  S
C773        C774   1.350       .  D
C774        C836   1.504       .  S
C775        H780   1.086       .  S
C775        C776   1.372       .  D
C776        C804   1.520       .  S
N781        C786   1.362       .  A
N781        C785   1.365       .  A
N781        H813   1.043       .  S
N782        C789   1.367   1_655  A
N782        C790   1.365       .  A
N783        C788   1.364       .  A
N783        C787   1.360       .  A
N783        H814   1.042       .  S
N784        C791   1.358   1_655  A
N784        C792   1.362       .  A
C785        C793   1.383       .  A
C785        C801   1.422       .  A
C786        C802   1.422       .  A
C786        C794   1.384       .  A
C787        C795   1.382       .  A
C787        C804   1.418       .  A
C788        C803   1.427       .  A
C788        C796   1.384       .  A
C789        C801   1.438       .  A
C789        C797   1.387       .  A
C790        C804   1.434       .  A
C790        C798   1.386       .  A
C791        C799   1.387       .  A
C791        C802   1.424       .  A
C792        C800   1.385       .  A
C792        C803   1.424       .  A
C793        C794   1.365       .  A
C793        H805   1.077       .  S
C794        H806   1.077       .  S
C795        C796   1.368       .  A
C795        H807   1.082       .  S
C796        H808   1.073       .  S
C797        C798   1.380   1_455  A
C797        H809   1.082       .  S
C798        H810   1.082       .  S
C799        C800   1.374   1_455  A
C799        H811   1.082       .  S
C800        H812   1.082       .  S
N815        C820   1.354       .  A
N815        C819   1.354       .  A
N815        H847   1.041       .  S
N816        C823   1.346       .  A
N816        C824   1.360       .  A
N817        C822   1.353       .  A
N817        C821   1.352       .  A
N817        H848   1.045       .  S
N818        C825   1.349       .  A
N818        C826   1.360       .  A
C819        C827   1.388       .  A
C819        C835   1.415       .  A
C820        C836   1.402       .  A
C820        C828   1.376       .  A
C821        C829   1.381       .  A
C821        C838   1.416       .  A
C822        C837   1.410       .  A
C822        C830   1.384       .  A
C823        C835   1.431       .  A
C823        C831   1.391       .  A
C824        C838   1.413       .  A
C824        C832   1.381       .  A
C825        C833   1.385       .  A
C825        C836   1.425       .  A
C826        C834   1.387       .  A
C826        C837   1.422       .  A
C827        C828   1.362       .  A
C827        H839   1.068       .  S
C828        H840   1.073       .  S
C829        C830   1.373       .  A
C829        H841   1.071       .  S
C830        H842   1.082       .  S
C831        C832   1.374       .  A
C831        H843   1.079       .  S
C832        H844   1.072       .  S
C833        C834   1.378       .  A
C833        H845   1.081       .  S
C834        H846   1.074       .  S
C849        C850   1.409       .  A
C850        C851   1.400       .  A
C850        H863   1.084       .  S
C851        C852   1.403       .  A
C851        H864   1.083       .  S
C852        C855   1.483       .  S
C853        C854   1.398       .  A
C853        H865   1.084       .  S
C854        H866   1.083       .  S
C855        H867   1.087       .  S
C855        C856   1.354       .  D
C856        C857   1.478       .  S
C857        C862   1.403       .  A
C858        H869   1.082       .  S
C859        C860   1.418       .  A
C860        C861   1.406       .  A
C861        C862   1.397       .  A
C861        H871   1.078       .  S
C862        H872   1.082       .  S
C873        C878   1.400       .  A
C874        C875   1.393       .  A
C874        H887   1.082   1_545  S
C875        C876   1.402       .  A
C875        H888   1.083       .  S
C876        C877   1.402       .  A
C876        C879   1.463       .  S
C878        H890   1.083   1_565  S
C879        H891   1.085       .  S
C879        C880   1.349       .  D
C880        C881   1.473       .  S
C880        H892   1.088       .  S
C881        C882   1.395       .  A
C881        C886   1.408       .  A
C882        C883   1.382       .  A
C882        H893   1.080       .  S
C883        C884   1.410       .  A
C883        H894   1.079       .  S
C884        C885   1.403       .  A
C885        C886   1.400       .  A
C885        H895   1.080       .  S
C886        H896   1.084       .  S
C897        C898   1.415       .  A
C897        C902   1.410       .  A
C898        C899   1.401       .  A
C898        H911   1.080       .  S
C899        C900   1.401       .  A
C899        H912   1.083       .  S
C900        C901   1.402       .  A
C900        C903   1.483       .  S
C901        C902   1.400       .  A
C901        H913   1.084       .  S
C902        H914   1.078       .  S
C903        H915   1.086       .  S
C903        C904   1.353       .  D
C904        C905   1.491       .  S
C904        H916   1.087       .  S
C905        C906   1.409       .  A
C905        C910   1.402   1_545  A
C906        C907   1.407   1_545  A
C906        H917   1.083       .  S
C907        C908   1.404       .  A
C907        H918   1.083       .  S
C908        C909   1.409       .  A
C909        C910   1.394       .  A
C910        H920   1.083       .  S
C921        C922   1.409       .  A
C921        C926   1.414       .  A
C922        C923   1.395       .  A
C922        H935   1.082       .  S
C923        C924   1.399       .  A
C923        H936   1.081       .  S
C924        C925   1.397       .  A
C924        C927   1.469       .  S
C925        C926   1.392       .  A
C926        H938   1.079       .  S
C927        H939   1.088       .  S
C928        C929   1.479       .  S
C928        H940   1.086   1_554  S
C929        C930   1.402       .  A
C929        C934   1.401       .  A
C930        C931   1.392   1_655  A
C930        H941   1.083       .  S
C931        C932   1.407       .  A
C931        H942   1.084       .  S
C932        C933   1.405       .  A
C933        C934   1.400   1_455  A
C934        H944   1.080   1_565  S
C945        C946   1.422       .  A
C945        C950   1.407       .  A
C946        C947   1.395       .  A
C946        H959   1.081       .  S
C947        C948   1.391       .  A
C947        H960   1.084       .  S
C948        C949   1.399       .  A
C948        C951   1.471       .  S
C949        C950   1.401       .  A
C949        H961   1.080       .  S
C950        H962   1.081       .  S
C951        H963   1.087       .  S
C951        C952   1.350       .  D
C952        C953   1.477       .  S
C952        H964   1.088       .  S
C953        C954   1.404       .  A
C953        C958   1.403       .  A
C954        C955   1.401       .  A
C954        H965   1.084       .  S
C955        C956   1.404       .  A
C955        H966   1.083       .  S
C956        C957   1.408   1_455  A
C957        C958   1.397   1_655  A
C957        H967   1.084       .  S
C958        H968   1.082       .  S
C969        C970   1.406       .  A
C969        C974   1.412       .  A
C970        C971   1.400       .  A
C970        H983   1.080       .  S
C971        C972   1.406       .  A
C971        H984   1.083       .  S
C972        C973   1.395       .  A
C972        C975   1.474       .  S
C973        C974   1.383       .  A
C973        H985   1.078       .  S
C974        H986   1.082       .  S
C975        H987   1.089       .  S
C975        C976   1.352       .  D
C976        C977   1.463       .  S
C976        H988   1.084       .  S
C977        C978   1.400       .  A
C977        C982   1.399       .  A
C978        C979   1.396   1_565  A
C978        H989   1.084       .  S
C979        C980   1.407       .  A
C979        H990   1.083       .  S
C980        C981   1.406       .  A
C981        C982   1.389   1_545  A
C981        H991   1.082       .  S
C982        H992   1.084       .  S
C993        C994   1.414       .  A
C993        C998   1.410       .  A
C994        C995   1.399       .  A
C994       H1007   1.082       .  S
C995        C996   1.399       .  A
C995       H1008   1.083       .  S
C996        C997   1.402       .  A
C996        C999   1.477       .  S
C997        C998   1.399       .  A
C997       H1009   1.084       .  S
C998       H1010   1.078       .  S
C999       H1011   1.087       .  S
C999       C1000   1.349       .  D
C1000      C1001   1.479       .  S
C1000      H1012   1.087       .  S
C1001      C1002   1.405       .  A
C1001      C1006   1.401       .  A
C1002      C1003   1.400       .  A
C1002      H1013   1.083       .  S
C1003      C1004   1.403       .  A
C1003      H1014   1.083       .  S
C1004      C1005   1.408       .  A
C1005      C1006   1.396       .  A
C1005      H1015   1.083   1_655  S
C1006      H1016   1.083       .  S
C1017      C1018   1.401       .  A
C1017      C1022   1.405       .  A
C1018      C1019   1.393       .  A
C1018      H1031   1.083       .  S
C1019      C1020   1.403       .  A
C1019      H1032   1.084       .  S
C1020      C1021   1.398       .  A
C1020      C1023   1.464       .  S
C1021      C1022   1.392       .  A
C1021      H1033   1.083       .  S
C1022      H1034   1.083       .  S
C1023      H1035   1.086       .  S
C1023      C1024   1.345       .  D
C1024      C1025   1.490       .  S
C1024      H1036   1.085       .  S
C1025      C1026   1.394       .  A
C1025      C1030   1.407       .  A
C1026      C1027   1.396       .  A
C1026      H1037   1.084       .  S
C1027      C1028   1.421       .  A
C1027      H1038   1.079       .  S
C1028      C1029   1.411       .  A
C1029      C1030   1.404       .  A
C1029      H1039   1.083       .  S
C1030      H1040   1.081       .  S
