geometry optimzed in LAMMPS
_audit_creation_date              2020-12-01 
_audit_creation_method            'lammps2cif' 
_symmetry_space_group_name_H-M    'P1' 
_symmetry_Int_Tables_number       1 
_symmetry_cell_setting            triclinic 
loop_ 
_symmetry_equiv_pos_as_xyz 
  x,y,z 
_cell_length_a                    50.31668114 
_cell_length_b                    50.400158090742266 
_cell_length_c                    50.31878566833468 
_cell_angle_alpha                 90.5949281993841 
_cell_angle_beta                  88.72013948312228 
_cell_angle_gamma                 90.37841374533737 
loop_ 
_atom_site_label 
_atom_site_type_symbol 
_atom_site_fract_x 
_atom_site_fract_y 
_atom_site_fract_z 
_atom_site_charge 
C1          C  0.09016098  0.08015176  0.08923817     0.86600
C2          C  0.11109130  0.06499479  0.10523832    -0.53700
C3          C  0.12809089  0.08083247  0.11939126     0.09500
C4          C  0.12166105  0.11066011  0.11753281     0.20400
C5          C  0.07586527  0.09693097  0.11148740    -0.54400
C6          C  0.09219863  0.11277412  0.12624941     0.09600
C7          C  0.10602184  0.10108658  0.07310670    -0.53900
C8          C  0.12236252  0.11705502  0.08765951     0.10200
H9          H  0.11180527  0.04357916  0.10627415     0.14700
H10         H  0.13501762  0.12358041  0.12915389     0.00400
H11         H  0.05471616  0.09639373  0.11644134     0.15000
H12         H  0.10446463  0.10300121  0.05170976     0.14800
C13         C  0.91430947  0.12685922  0.94838630     0.86600
C14         C  0.89879444  0.10672574  0.93176349    -0.53700
C15         C  0.91378978  0.09181369  0.91451554     0.09500
C16         C  0.94403080  0.09745709  0.91630118     0.20400
C17         C  0.93462704  0.10907052  0.96278526    -0.54400
C18         C  0.95050720  0.09335669  0.94619564     0.09600
C19         C  0.93201879  0.14256933  0.92894254    -0.53900
C20         C  0.94695125  0.12761257  0.91178967     0.10200
H21         H  0.87719642  0.10579080  0.93217637     0.14700
H22         H  0.95609246  0.08607464  0.90171241     0.00400
H23         H  0.93678669  0.10868441  0.98411534     0.15000
H24         H  0.93158511  0.16408751  0.92777643     0.14800
C25         C  0.91712494  0.91341204  0.07657290     0.86600
C26         C  0.93510539  0.89834548  0.09510379    -0.53700
C27         C  0.95154653  0.91357465  0.11005454     0.09500
C28         C  0.94968563  0.94375868  0.10364540     0.20400
C29         C  0.90343667  0.93508993  0.09353738    -0.54400
C30         C  0.92003688  0.95090811  0.10791281     0.09600
C31         C  0.93691612  0.92963713  0.05899391    -0.53900
C32         C  0.95400979  0.94581024  0.07289698     0.10200
H33         H  0.93279137  0.87713730  0.09832777     0.14700
H34         H  0.96304596  0.95661515  0.11543719     0.00400
H35         H  0.88198393  0.93716494  0.09470197     0.15000
H36         H  0.93656989  0.93028833  0.03751216     0.14800
C37         C  0.12250781  0.90561048  0.95701621     0.86600
C38         C  0.14230554  0.92372458  0.94245767    -0.53700
C39         C  0.13172244  0.94019855  0.92432379     0.09500
C40         C  0.10082584  0.93929629  0.92439842     0.20400
C41         C  0.10260928  0.92482802  0.97070582    -0.54400
C42         C  0.09136967  0.94273540  0.95396568     0.09600
C43         C  0.10535396  0.89288671  0.93499671    -0.53900
C44         C  0.09429036  0.91004794  0.91758431     0.10200
H45         H  0.16347249  0.92262530  0.94565218     0.14700
H46         H  0.09155116  0.95383846  0.91125974     0.00400
H47         H  0.09645907  0.92396385  0.99131349     0.15000
H48         H  0.10117693  0.87174522  0.93387442     0.14800
C49         C  0.02055153  0.02320227  0.00882516    -0.02400
N50         N  0.81195590  0.74647732  0.51859542    -0.27200
N51         N  0.81209896  0.76290388  0.49829513    -0.35100
C52         C  0.83725898  0.76892993  0.49121924     0.01100
C53         C  0.85400576  0.75548732  0.50758235     0.07100
C54         C  0.83733518  0.74150840  0.52488259    -0.06000
H55         H  0.84290156  0.78373029  0.47668765     0.07800
H56         H  0.84312312  0.73027252  0.54198260     0.09000
Cu57       Cu  0.77960455  0.78394402  0.48715283     0.44200
Cu58       Cu  0.77672311  0.73526477  0.53847207     0.42000
Cu59       Cu  0.72557409  0.78520378  0.53417156     0.43900
N60         N  0.76007729  0.81814755  0.49751965    -0.34600
N61         N  0.74141308  0.81955381  0.51635794    -0.28900
C62         C  0.73762733  0.84537067  0.52274106    -0.05000
C63         C  0.75516251  0.86062325  0.50740121     0.07300
C64         C  0.76871505  0.84263581  0.49147600     0.01100
H65         H  0.72370514  0.85236885  0.53786120     0.08700
H66         H  0.78520786  0.84689408  0.47798605     0.07800
N67         N  0.71811449  0.74649858  0.54781423    -0.36100
N68         N  0.73704913  0.72868373  0.55021472    -0.28200
C69         C  0.72593050  0.70563393  0.55816180    -0.03500
C70         C  0.69848451  0.70862744  0.56083418     0.05100
C71         C  0.69444486  0.73499528  0.55380092     0.03200
H72         H  0.73700442  0.68757243  0.56087142     0.08300
H73         H  0.67579506  0.74493428  0.55148886     0.07200
N74         N  0.50738998  0.73637066  0.80934841    -0.27200
N75         N  0.49027293  0.75602315  0.81192998    -0.35100
C76         C  0.48709330  0.76256091  0.83770079     0.01100
C77         C  0.50272136  0.74613348  0.85241189     0.07100
C78         C  0.51551373  0.72975465  0.83379174    -0.06000
H79         H  0.47572455  0.77935867  0.84504194     0.07800
H80         H  0.53092040  0.71549780  0.83750569     0.09000
Cu81       Cu  0.47901478  0.77903451  0.78091264     0.44200
Cu82       Cu  0.52077313  0.72336190  0.77168247     0.42000
Cu83       Cu  0.52143356  0.77649769  0.72293968     0.43900
N84         N  0.49070786  0.81212705  0.76045104    -0.34600
N85         N  0.50804396  0.81193044  0.74035653    -0.28900
C86         C  0.51629955  0.83705410  0.73601370    -0.05000
C87         C  0.50329282  0.85366255  0.75425405     0.07300
C88         C  0.48742422  0.83704241  0.76941849     0.01100
H89         H  0.53191339  0.84241767  0.72195970     0.08700
H90         H  0.47563003  0.84244280  0.78686457     0.07800
N91         N  0.52973984  0.73689716  0.71334036    -0.36100
N92         N  0.52945166  0.71762897  0.73104792    -0.28200
C93         C  0.53665632  0.69482022  0.71875164    -0.03500
C94         C  0.54134358  0.69978059  0.69201438     0.05100
C95         C  0.53714713  0.72675793  0.68940760     0.03200
H96         H  0.53956079  0.67620807  0.72876778     0.08300
H97         H  0.54051816  0.73838877  0.67168347     0.07200
N98         N  0.52301598  0.73625579  0.22880593    -0.27200
N99         N  0.54265313  0.75367493  0.22659266    -0.35100
C100        C  0.54634257  0.76031845  0.20102560     0.01100
C101        C  0.52837986  0.74634728  0.18596760     0.07100
C102        C  0.51371476  0.73127820  0.20424956    -0.06000
H103        H  0.55989244  0.77565386  0.19411943     0.07800
H104        H  0.49645514  0.71910766  0.20031113     0.09000
Cu105      Cu  0.55709554  0.77499108  0.25795351     0.44200
Cu106      Cu  0.50864646  0.72381506  0.26638276     0.42000
Cu107      Cu  0.51681353  0.77580959  0.31664177     0.43900
N108        N  0.54695037  0.80929806  0.27759808    -0.34600
N109        N  0.53059465  0.81035858  0.29844575    -0.28900
C110        C  0.52323305  0.83580377  0.30249129    -0.05000
C111        C  0.53520620  0.85115883  0.28272324     0.07300
C112        C  0.55029228  0.83365704  0.26764694     0.01100
H113        H  0.50988518  0.84235281  0.31829569     0.08700
H114        H  0.56143550  0.83803860  0.24956226     0.07800
N115        N  0.50524121  0.73704077  0.32555081    -0.36100
N116        N  0.50150071  0.71824886  0.30744597    -0.28200
C117        C  0.49382430  0.69586063  0.32001331    -0.03500
C118        C  0.49252312  0.70063735  0.34736496     0.05100
C119        C  0.50040860  0.72701683  0.34990799     0.03200
H120        H  0.48946849  0.67730818  0.30996363     0.08300
H121        H  0.50328301  0.73823430  0.36794104     0.07200
N122        N  0.73676535  0.51567032  0.22877823    -0.27200
N123        N  0.75582045  0.53358374  0.23147983    -0.35100
C124        C  0.76575270  0.54008030  0.20744153     0.01100
C125        C  0.75260473  0.52539911  0.18853338     0.07100
C126        C  0.73398160  0.51037510  0.20266430    -0.06000
H127        H  0.78286352  0.55283218  0.20411851     0.07800
H128        H  0.72008683  0.49606327  0.19473450     0.09000
Cu129      Cu  0.77443589  0.54120267  0.26659016     0.44200
Cu130      Cu  0.71940956  0.49677640  0.26157433     0.42000
Cu131      Cu  0.77025515  0.48507160  0.30929876     0.43900
N132        N  0.80696200  0.52516004  0.28400582    -0.34600
N133        N  0.80622294  0.50271075  0.29730003    -0.28900
C134        C  0.83122461  0.49346869  0.29887244    -0.05000
C135        C  0.84844985  0.51125745  0.28618518     0.07300
C136        C  0.83217076  0.53093246  0.27697265     0.01100
H137        H  0.83598769  0.47428932  0.30675006     0.08700
H138        H  0.83800579  0.54722040  0.26422418     0.07800
N139        N  0.72999898  0.47679426  0.31669088    -0.36100
N140        N  0.71131849  0.48150285  0.29930354    -0.28200
C141        C  0.68734694  0.47659258  0.31072570    -0.03500
C142        C  0.69099474  0.46786789  0.33645187     0.05100
C143        C  0.71833831  0.46861265  0.33956493     0.03200
H144        H  0.66871490  0.48076985  0.30144202     0.08300
H145        H  0.72891732  0.46432654  0.35749150     0.07200
O146        O  0.51418460  0.78410872  0.97858611    -0.72900
O147        O  0.51900038  0.78509456  0.05989525    -0.73900
O148        O  0.55587538  0.78642742  0.01598753    -0.62500
O149        O  0.47741333  0.78543661  0.02241969    -0.70900
O150        O  0.47647113  0.74146116  0.02125740    -0.70400
O151        O  0.55736927  0.74250867  0.01673343    -0.61700
O152        O  0.51825487  0.74136929  0.05818856    -0.74200
O153        O  0.51553772  0.74035837  0.97973236    -0.73000
Cu154      Cu  0.51661972  0.78682339  0.01920409     1.04600
Cu155      Cu  0.51692835  0.73994271  0.01897747     1.04300
C156        C  0.51411673  0.76161244  0.96638525     0.93300
C157        C  0.51927189  0.76274417  0.07187819     0.92500
C158        C  0.56922564  0.76505795  0.01548894     0.84600
C159        C  0.46435781  0.76372627  0.02280660     0.90900
O160        O  0.74431199  0.51007576  0.98685723    -0.72900
O161        O  0.74876024  0.52591445  0.06424733    -0.73900
O162        O  0.74808689  0.55778546  0.01777448    -0.62500
O163        O  0.74726244  0.47845759  0.03364475    -0.70900
O164        O  0.79093507  0.47895488  0.02835081    -0.70400
O165        O  0.79189516  0.55603974  0.01626155    -0.61700
O166        O  0.79281516  0.52361348  0.06210581    -0.74200
O167        O  0.78825311  0.51097965  0.98241041    -0.73000
Cu168      Cu  0.74552267  0.51814179  0.02568986     1.04600
Cu169      Cu  0.79244815  0.51744536  0.02211858     1.04300
C170        C  0.76525457  0.50804161  0.97231107     0.93300
C171        C  0.77111515  0.52639372  0.07559651     0.92500
C172        C  0.77064090  0.56947033  0.01474160     0.84600
C173        C  0.76954960  0.46627134  0.03375918     0.90900
N174        N  0.79965152  0.72426750  0.99746475    -0.27200
N175        N  0.77885360  0.72242139  0.98202386    -0.35100
C176        C  0.77126435  0.69697141  0.97986127     0.01100
C177        C  0.78808244  0.68174449  0.99457352     0.07100
C178        C  0.80583439  0.69974820  0.00568334    -0.06000
H179        H  0.75340914  0.69031034  0.97014752     0.07800
H180        H  0.82054683  0.69578469  0.02040801     0.09000
Cu181      Cu  0.75547601  0.75402173  0.97336553     0.44200
Cu182      Cu  0.81471267  0.76105959  0.00936682     0.42000
Cu183      Cu  0.76153995  0.80964370  0.01730365     0.43900
N184        N  0.72332561  0.77407764  0.98865788    -0.34600
N185        N  0.72474216  0.79356267  0.00636350    -0.28900
C186        C  0.69990166  0.79866690  0.01573826    -0.05000
C187        C  0.68246208  0.78135896  0.00322803     0.07300
C188        C  0.69801647  0.76609287  0.98638555     0.01100
H189        H  0.69498846  0.81331210  0.03089911     0.08700
H190        H  0.69156848  0.74955673  0.97419811     0.07800
N191        N  0.80207889  0.81875678  0.02109727    -0.36100
N192        N  0.82135302  0.80119866  0.01767800    -0.28200
C193        C  0.84492673  0.81330739  0.02162700    -0.03500
C194        C  0.84043084  0.83981204  0.02760846     0.05100
C195        C  0.81300244  0.84239997  0.02752391     0.03200
H196        H  0.86385064  0.80323634  0.02155708     0.08300
H197        H  0.80177668  0.86002191  0.03267012     0.07200
N198        N  0.73696923  0.49639121  0.81816148    -0.27200
N199        N  0.75803461  0.48090575  0.81807472    -0.35100
C200        C  0.76616650  0.47769985  0.84305388     0.01100
C201        C  0.74955939  0.49197299  0.85987271     0.07100
C202        C  0.73109975  0.50355134  0.84353808    -0.06000
H203        H  0.78432128  0.46784294  0.84831369     0.07800
H204        H  0.71573295  0.51744627  0.84947793     0.09000
Cu205      Cu  0.78041655  0.47332204  0.78441673     0.44200
Cu206      Cu  0.72140975  0.50970101  0.78243584     0.42000
Cu207      Cu  0.77278514  0.51953249  0.73076197     0.43900
N208        N  0.81156974  0.48843960  0.76238463    -0.34600
N209        N  0.80955517  0.50664856  0.74384239    -0.28900
C210        C  0.83405528  0.51636812  0.73817502    -0.05000
C211        C  0.85200047  0.50398233  0.75450862     0.07300
C212        C  0.83701416  0.48622820  0.76918969     0.01100
H213        H  0.83820216  0.53169750  0.72380132     0.08700
H214        H  0.84382543  0.47407649  0.78525045     0.07800
N215        N  0.73233149  0.52587870  0.72512621    -0.36100
N216        N  0.71373517  0.52116340  0.74341433    -0.28200
C217        C  0.68977379  0.52531757  0.73290452    -0.03500
C218        C  0.69301057  0.53375988  0.70661228     0.05100
C219        C  0.72061195  0.53371880  0.70277183     0.03200
H220        H  0.67176742  0.52181535  0.74414569     0.08300
H221        H  0.73163696  0.53912898  0.68493354     0.07200
N222        N  0.29911052  0.81839371  0.51736588    -0.27200
N223        N  0.28038150  0.82077928  0.53601400    -0.35100
C224        C  0.27385117  0.84637977  0.53913741     0.01100
C225        C  0.28931639  0.86125317  0.52184763     0.07100
C226        C  0.30511911  0.84283810  0.50812636    -0.06000
H227        H  0.25792912  0.85351995  0.55207729     0.07800
H228        H  0.31878834  0.84665136  0.49171867     0.09000
Cu229      Cu  0.25895259  0.78936729  0.55078151     0.44200
Cu230      Cu  0.31264451  0.78077879  0.50514520     0.42000
Cu231      Cu  0.26311358  0.72794169  0.51519899     0.43900
N232        N  0.22630787  0.76658704  0.54261395    -0.34600
N233        N  0.22689262  0.74494458  0.52757505    -0.28900
C234        C  0.20175833  0.73905533  0.52052766    -0.05000
C235        C  0.18495975  0.75822349  0.53156895     0.07300
C236        C  0.20122286  0.77504488  0.54559688     0.01100
H237        H  0.19630339  0.72268178  0.50766554     0.08700
H238        H  0.19550550  0.79338437  0.55545955     0.07800
N239        N  0.30325499  0.72088951  0.50532780    -0.36100
N240        N  0.32091923  0.74009581  0.50112434    -0.28200
C241        C  0.34437977  0.72911969  0.49386377    -0.03500
C242        C  0.34168578  0.70173671  0.49397575     0.05100
C243        C  0.31521568  0.69727093  0.50100985     0.03200
H244        H  0.36196810  0.74027500  0.48805305     0.08300
H245        H  0.30509358  0.67827367  0.50166712     0.07200
O246        O  0.02390684  0.75623180  0.47815156    -0.72900
O247        O  0.01677193  0.75206210  0.55900519    -0.73900
O248        O  0.98157166  0.75224485  0.51567581    -0.62500
O249        O  0.05974184  0.75349405  0.52118911    -0.70900
O250        O  0.06017843  0.79751539  0.52372119    -0.70400
O251        O  0.97947901  0.79590213  0.51783013    -0.61700
O252        O  0.01606726  0.79603084  0.55998235    -0.74200
O253        O  0.02310028  0.79996579  0.48183885    -0.73000
Cu254      Cu  0.02061650  0.75197460  0.51841969     1.04600
Cu255      Cu  0.01977345  0.79887135  0.52095533     1.04300
C256        C  0.02385450  0.77915375  0.46731030     0.93300
C257        C  0.01462890  0.77400165  0.57200785     0.92500
C258        C  0.96779830  0.77334750  0.51553100     0.84600
C259        C  0.07240986  0.77526993  0.52351917     0.90900
O260        O  0.01894737  0.48269710  0.79484181    -0.72900
O261        O  0.01253937  0.56044165  0.79601403    -0.73900
O262        O  0.97542881  0.51790848  0.79478684    -0.62500
O263        O  0.05602056  0.52571149  0.79344642    -0.70900
O264        O  0.05493134  0.52457619  0.74964458    -0.70400
O265        O  0.97683614  0.51930464  0.75065936    -0.61700
O266        O  0.01372647  0.56221929  0.75201842    -0.74200
O267        O  0.01802867  0.48145327  0.75103483    -0.73000
Cu268      Cu  0.01574045  0.52165356  0.79629740     1.04600
Cu269      Cu  0.01591433  0.52186337  0.74929634     1.04300
C270        C  0.01897058  0.46930506  0.77325494     0.93300
C271        C  0.01249787  0.57388886  0.77477372     0.92500
C272        C  0.96372684  0.51727431  0.77241874     0.84600
C273        C  0.06814799  0.52689570  0.77082518     0.90900
N274        N  0.01117087  0.72900062  0.80305848    -0.27200
N275        N  0.99355547  0.72712089  0.78403677    -0.35100
C276        C  0.98929276  0.70156589  0.77790239     0.01100
C277        C  0.00477346  0.68639364  0.79386388     0.07100
C278        C  0.01856646  0.70426412  0.80966162    -0.06000
H279        H  0.97743521  0.69463789  0.76151932     0.07800
H280        H  0.03381138  0.69970892  0.82370504     0.09000
Cu281      Cu  0.98283461  0.75797785  0.76069257     0.44200
Cu282      Cu  0.02567409  0.76596222  0.81544612     0.42000
Cu283      Cu  0.02185249  0.81637129  0.76322954     0.43900
N284        N  0.99378915  0.77843495  0.72732334    -0.34600
N285        N  0.00970844  0.79936987  0.72749074    -0.28900
C286        C  0.01737086  0.80464139  0.70221391    -0.05000
C287        C  0.00582355  0.78575905  0.68578593     0.07300
C288        C  0.99093426  0.76966682  0.70231031     0.01100
H289        H  0.03105285  0.82027731  0.69636270     0.08700
H290        H  0.98009171  0.75192629  0.69674582     0.07800
N291        N  0.03040526  0.82479005  0.80286451    -0.36100
N292        N  0.03239456  0.80657997  0.82148526    -0.28200
C293        C  0.03844749  0.81868846  0.84456754    -0.03500
C294        C  0.03978499  0.84589285  0.84058752     0.05100
C295        C  0.03492954  0.84889005  0.81375401     0.03200
H296        H  0.04197410  0.80835888  0.86287323     0.08300
H297        H  0.03487881  0.86727570  0.80285082     0.07200
N298        N  0.22375672  0.53600049  0.74267084    -0.27200
N299        N  0.22310648  0.55244901  0.76324786    -0.35100
C300        C  0.19776250  0.55765300  0.77010594     0.01100
C301        C  0.18142810  0.54387416  0.75305312     0.07100
C302        C  0.19861346  0.53018195  0.73591955    -0.06000
H303        H  0.19165749  0.56850756  0.78785146     0.07800
H304        H  0.19338805  0.51508668  0.72151803     0.09000
Cu305      Cu  0.25494227  0.55877553  0.78729872     0.44200
Cu306      Cu  0.25907546  0.51892836  0.72901891     0.42000
Cu307      Cu  0.30659680  0.51010258  0.78197218     0.43900
N308        N  0.27522117  0.54538646  0.81937506    -0.34600
N309        N  0.29295480  0.52615741  0.81810874    -0.28900
C310        C  0.29736879  0.51780801  0.84297896    -0.05000
C311        C  0.28129026  0.53234499  0.86042738     0.07300
C312        C  0.26783048  0.54977043  0.84480083     0.01100
H313        H  0.31027016  0.50155890  0.84780834     0.08700
H314        H  0.25198052  0.56293523  0.85118985     0.07800
N315        N  0.31449076  0.50090189  0.74204239    -0.36100
N316        N  0.29758257  0.50499783  0.72281447    -0.28200
C317        C  0.30963170  0.49955979  0.69926554    -0.03500
C318        C  0.33536118  0.49095901  0.70364881     0.05100
C319        C  0.33755571  0.49228165  0.73116049     0.03200
H320        H  0.30032490  0.50288128  0.68057249     0.08300
H321        H  0.35494607  0.48778182  0.74250017     0.07200
N322        N  0.74642737  0.23409832  0.51679944    -0.27200
N323        N  0.76572109  0.23353224  0.53410692    -0.35100
C324        C  0.77378617  0.20849157  0.53714225     0.01100
C325        C  0.75896778  0.19199532  0.52103656     0.07100
C326        C  0.74136739  0.20897658  0.50867939    -0.06000
H327        H  0.79045900  0.20288349  0.54903845     0.07800
H328        H  0.72626453  0.20379402  0.49465076     0.09000
Cu329      Cu  0.78543549  0.26648553  0.54765948     0.44200
Cu330      Cu  0.73154313  0.27025995  0.50344443     0.42000
Cu331      Cu  0.78318836  0.32227858  0.50568597     0.43900
N332        N  0.81831886  0.28923242  0.53944375    -0.34600
N333        N  0.81880225  0.30835040  0.52166678    -0.28900
C334        C  0.84449481  0.31372128  0.51515259    -0.05000
C335        C  0.86050670  0.29689381  0.52950004     0.07300
C336        C  0.84320049  0.28199886  0.54483779     0.01100
H337        H  0.85097235  0.32758258  0.50003229     0.08700
H338        H  0.84822226  0.26537084  0.55715194     0.07800
N339        N  0.74333330  0.32910798  0.49566498    -0.36100
N340        N  0.72479876  0.31032406  0.49490460    -0.28200
C341        C  0.70136096  0.32150838  0.48914550    -0.03500
C342        C  0.70512242  0.34858777  0.48582918     0.05100
C343        C  0.73199824  0.35265201  0.49042434     0.03200
H344        H  0.68275189  0.31075253  0.48778359     0.08300
H345        H  0.74241318  0.37144592  0.49110528     0.07200
O346        O  0.79767248  0.06628939  0.51421630    -0.72900
O347        O  0.79625282  0.98565322  0.50868142    -0.73900
O348        O  0.79917853  0.02854771  0.47224802    -0.62500
O349        O  0.79650277  0.02361330  0.55034722    -0.70900
O350        O  0.75263019  0.02317077  0.55139125    -0.70400
O351        O  0.75545333  0.03006206  0.47038223    -0.61700
O352        O  0.75223077  0.98709908  0.50729930    -0.74200
O353        O  0.75354210  0.06587652  0.51425117    -0.73000
Cu354      Cu  0.79886489  0.02597067  0.51136613     1.04600
Cu355      Cu  0.75187715  0.02653462  0.51081273     1.04300
C356        C  0.77547000  0.07858633  0.51504856     0.93300
C357        C  0.77369880  0.97384745  0.50720248     0.92500
C358        C  0.77830559  0.03080145  0.45859908     0.84600
C359        C  0.77470227  0.02235964  0.56362961     0.90900
O360        O  0.51808121  0.98057065  0.75522128    -0.72900
O361        O  0.52314156  0.05821135  0.75739798    -0.73900
O362        O  0.56086515  0.01725641  0.75776344    -0.62500
O363        O  0.48035389  0.02177566  0.75691293    -0.70900
O364        O  0.47974743  0.02166160  0.80105783    -0.70400
O365        O  0.55832168  0.01569117  0.80179477    -0.61700
O366        O  0.52229369  0.05926121  0.80122962    -0.74200
O367        O  0.51550532  0.97813286  0.79895186    -0.73000
Cu368      Cu  0.52068196  0.01944158  0.75537720     1.04600
Cu369      Cu  0.51895363  0.01863214  0.80237171     1.04300
C370        C  0.51545896  0.96664236  0.77607323     0.93300
C371        C  0.52363496  0.07151667  0.77900301     0.92500
C372        C  0.57209708  0.01563828  0.78027472     0.84600
C373        C  0.46759517  0.02279247  0.77920624     0.90900
N374        N  0.72874980  0.01960345  0.79705443    -0.27200
N375        N  0.72703154  0.00199513  0.77749040    -0.35100
C376        C  0.70142489  0.99704478  0.77245307     0.01100
C377        C  0.68601883  0.01235564  0.78940739     0.07100
C378        C  0.70385935  0.02637064  0.80498165    -0.06000
H379        H  0.69455939  0.98481147  0.75616115     0.07800
H380        H  0.69913939  0.04108693  0.82012726     0.09000
Cu381      Cu  0.75789421  0.99155243  0.75243609     0.44200
Cu382      Cu  0.76551006  0.03484433  0.80925109     0.42000
Cu383      Cu  0.81567920  0.03113659  0.75575649     0.43900
N384        N  0.77947545  0.00192838  0.71913972    -0.34600
N385        N  0.80007895  0.01823195  0.71975621    -0.28900
C386        C  0.80617244  0.02571484  0.69469673    -0.05000
C387        C  0.78854798  0.01322452  0.67763903     0.07300
C388        C  0.77184868  0.99852953  0.69395987     0.01100
H389        H  0.82108765  0.04043773  0.68962366     0.08700
H390        H  0.75445704  0.98736132  0.68811163     0.07800
N391        N  0.82420002  0.04085242  0.79511362    -0.36100
N392        N  0.80605925  0.04314695  0.81441972    -0.28200
C393        C  0.81836869  0.05003922  0.83703579    -0.03500
C394        C  0.84559202  0.05230588  0.83185467     0.05100
C395        C  0.84838702  0.04578564  0.80504113     0.03200
H396        H  0.80824247  0.05315730  0.85599562     0.08300
H397        H  0.86654866  0.04390611  0.79346817     0.07200
N398        N  0.53763841  0.22751528  0.75256682    -0.27200
N399        N  0.55685638  0.22458381  0.76968139    -0.35100
C400        C  0.55859039  0.19895767  0.77628693     0.01100
C401        C  0.53950736  0.18475327  0.76274749     0.07100
C402        C  0.52638221  0.20363167  0.74799968    -0.06000
H403        H  0.57144587  0.19153249  0.79143805     0.07800
H404        H  0.50866749  0.20085264  0.73659670     0.09000
Cu405      Cu  0.57221048  0.25563668  0.79097425     0.44200
Cu406      Cu  0.52593496  0.26484798  0.73982997     0.42000
Cu407      Cu  0.53639877  0.31760348  0.78794828     0.43900
N408        N  0.56255807  0.27820085  0.82382069    -0.34600
N409        N  0.54912700  0.30059294  0.82339996    -0.28900
C410        C  0.54135689  0.30673619  0.84851754    -0.05000
C411        C  0.54922019  0.28654660  0.86539924     0.07300
C412        C  0.56301422  0.26917540  0.84877707     0.01100
H413        H  0.52976672  0.32400521  0.85350565     0.08700
H414        H  0.57074224  0.24997976  0.85398157     0.07800
N415        N  0.52219301  0.32421120  0.74960742    -0.36100
N416        N  0.51857237  0.30473726  0.73217558    -0.28200
C417        C  0.50897804  0.31486475  0.70969073    -0.03500
C418        C  0.50593483  0.34198840  0.71308199     0.05100
C419        C  0.51477324  0.34726085  0.73856781     0.03200
H420        H  0.50444614  0.30323557  0.69217046     0.08300
H421        H  0.51514118  0.36636640  0.74855698     0.07200
O422        O  0.24269686  0.50174544  0.06446566    -0.72900
O423        O  0.24131583  0.51600304  0.98512846    -0.73900
O424        O  0.24120653  0.47035709  0.01716471    -0.62500
O425        O  0.24090340  0.54748192  0.03202808    -0.70900
O426        O  0.28470455  0.54947873  0.03056639    -0.70400
O427        O  0.28528865  0.46996367  0.01562385    -0.61700
O428        O  0.28545246  0.51664297  0.98468125    -0.74200
O429        O  0.28667611  0.50272970  0.06196292    -0.73000
Cu430      Cu  0.24001029  0.50887528  0.02483705     1.04600
Cu431      Cu  0.28707396  0.50971620  0.02322845     1.04300
C432        C  0.26524116  0.49994534  0.07563686     0.93300
C433        C  0.26361304  0.51873583  0.97264847     0.92500
C434        C  0.26292512  0.45785996  0.01365239     0.84600
C435        C  0.26225222  0.56114681  0.03321490     0.90900
N436        N  0.23582392  0.71734658  0.04336045    -0.27200
N437        N  0.25576510  0.71627206  0.05987925    -0.35100
C438        C  0.26291540  0.69092981  0.06293045     0.01100
C439        C  0.24680404  0.67497169  0.04751679     0.07100
C440        C  0.22994445  0.69254118  0.03515282    -0.06000
H441        H  0.27997560  0.68477980  0.07398343     0.07800
H442        H  0.21594276  0.68813331  0.01979177     0.09000
Cu443      Cu  0.27893622  0.74851927  0.06885878     0.44200
Cu444      Cu  0.22092385  0.75316764  0.03019077     0.42000
Cu445      Cu  0.27230566  0.80313482  0.02376289     0.43900
N446        N  0.31068945  0.76918603  0.05317586    -0.34600
N447        N  0.30891421  0.78812234  0.03531417    -0.28900
C448        C  0.33353953  0.79345401  0.02551374    -0.05000
C449        C  0.35127788  0.77693326  0.03788129     0.07300
C450        C  0.33612644  0.76183986  0.05513424     0.01100
H451        H  0.33808327  0.80766258  0.01007473     0.08700
H452        H  0.34291120  0.74576855  0.06730157     0.07800
N453        N  0.23219576  0.81042919  0.01664499    -0.36100
N454        N  0.21341867  0.79207878  0.01931176    -0.28200
C455        C  0.18989376  0.80251991  0.01285546    -0.03500
C456        C  0.19401411  0.82863704  0.00551807     0.05100
C457        C  0.22103434  0.83303393  0.00830516     0.03200
H458        H  0.17126910  0.79167584  0.01287373     0.08300
H459        H  0.23189880  0.85106523  0.00371547     0.07200
O460        O  0.00832379  0.56221252  0.23561765    -0.72900
O461        O  0.01859914  0.48401244  0.23705056    -0.73900
O462        O  0.97328984  0.51749385  0.23966609    -0.62500
O463        O  0.05359338  0.52888817  0.23514212    -0.70900
O464        O  0.05370098  0.52969429  0.27908317    -0.70400
O465        O  0.97576793  0.51981370  0.28337113    -0.61700
O466        O  0.01951083  0.48461165  0.28114432    -0.74200
O467        O  0.01015389  0.56466669  0.27940989    -0.73000
Cu468      Cu  0.01340134  0.52308890  0.23531563     1.04600
Cu469      Cu  0.01481836  0.52474798  0.28223739     1.04300
C470        C  0.00803010  0.57609543  0.25695082     0.93300
C471        C  0.02022237  0.47183530  0.25899738     0.92500
C472        C  0.96186256  0.51687475  0.26267735     0.84600
C473        C  0.06625847  0.53114443  0.25688074     0.90900
N474        N  0.01146340  0.80891620  0.31283181    -0.27200
N475        N  0.02666548  0.78766648  0.31161195    -0.35100
C476        C  0.03383834  0.78102099  0.33611007     0.01100
C477        C  0.02281084  0.79888421  0.35399540     0.07100
C478        C  0.00854701  0.81637056  0.33860175    -0.06000
H479        H  0.04431452  0.76303953  0.34079648     0.07800
H480        H  0.99534648  0.83187022  0.34568594     0.09000
Cu481      Cu  0.02994124  0.76312635  0.27911092     0.44200
Cu482      Cu  0.99323806  0.82296712  0.27868163     0.42000
Cu483      Cu  0.98430506  0.76989303  0.22766024     0.43900
N484        N  0.01745131  0.73139834  0.25685564    -0.34600
N485        N  0.99938871  0.73297683  0.23831697    -0.28900
C486        C  0.99266106  0.70809697  0.23065426    -0.05000
C487        C  0.00729516  0.69036059  0.24533127     0.07300
C488        C  0.02255858  0.70588459  0.26177585     0.01100
H489        H  0.97742000  0.70328319  0.21653350     0.08700
H490        H  0.03542168  0.69910875  0.27722399     0.07800
N491        N  0.97723144  0.81033306  0.22180355    -0.36100
N492        N  0.98052953  0.82938927  0.23981192    -0.28200
C493        C  0.97663663  0.85307320  0.22826101    -0.03500
C494        C  0.97033004  0.84879265  0.20183905     0.05100
C495        C  0.97115924  0.82147774  0.19852645     0.03200
H496        H  0.97982749  0.87200260  0.23800641     0.08300
H497        H  0.96854538  0.81053659  0.18014584     0.07200
N498        N  0.29375578  0.48747006  0.22835408    -0.27200
N499        N  0.27012731  0.47591335  0.22961848    -0.35100
C500        C  0.26203151  0.47038633  0.20492088     0.01100
C501        C  0.28144990  0.47866950  0.18701095     0.07100
C502        C  0.30129385  0.48953511  0.20257899    -0.06000
H503        H  0.24207480  0.46405200  0.20021111     0.07800
H504        H  0.31833265  0.50090080  0.19563149     0.09000
Cu505      Cu  0.24476998  0.47917689  0.26198432     0.44200
Cu506      Cu  0.31054141  0.50607275  0.26136617     0.42000
Cu507      Cu  0.25875603  0.53695575  0.30149054     0.43900
N508        N  0.21583490  0.50465512  0.27576282    -0.34600
N509        N  0.22077536  0.52745017  0.28787328    -0.28900
C510        C  0.19853487  0.54228379  0.28776361    -0.05000
C511        C  0.17858351  0.52788028  0.27512396     0.07300
C512        C  0.19058880  0.50418800  0.26789136     0.01100
H513        H  0.19772475  0.56243896  0.29506430     0.08700
H514        H  0.18198986  0.48819491  0.25635401     0.07800
N515        N  0.29900992  0.53793041  0.31142657    -0.36100
N516        N  0.31800402  0.52639029  0.29691149    -0.28200
C517        C  0.34150426  0.53025326  0.30883745    -0.03500
C518        C  0.33718110  0.54516431  0.33182096     0.05100
C519        C  0.30996634  0.54941608  0.33290558     0.03200
H520        H  0.36040995  0.52306814  0.30116546     0.08300
H521        H  0.29886772  0.55989262  0.34833766     0.07200
O522        O  0.56050090  0.28740068  0.03601948    -0.72900
O523        O  0.48080711  0.29027350  0.02488693    -0.73900
O524        O  0.51415495  0.28927512  0.06943352    -0.62500
O525        O  0.52700451  0.28992052  0.99112930    -0.70900
O526        O  0.52633020  0.24590403  0.98928266    -0.70400
O527        O  0.51191691  0.24522663  0.06895750    -0.61700
O528        O  0.48005278  0.24621005  0.02308163    -0.74200
O529        O  0.55787897  0.24358476  0.03519583    -0.73000
Cu530      Cu  0.52069939  0.29075734  0.03036234     1.04600
Cu531      Cu  0.51898238  0.24369861  0.02907044     1.04300
C532        C  0.57172776  0.26474132  0.03751586     0.93300
C533        C  0.46804432  0.26836701  0.02235160     0.92500
C534        C  0.51089928  0.26740664  0.08156641     0.84600
C535        C  0.52890031  0.26834895  0.97778871     0.90900
N536        N  0.79813032  0.31208327  0.04521334    -0.27200
N537        N  0.77890993  0.31268207  0.06351882    -0.35100
C538        C  0.77157671  0.33786731  0.06819559     0.01100
C539        C  0.78697900  0.35422601  0.05227010     0.07100
C540        C  0.80351787  0.33719351  0.03771813    -0.06000
H541        H  0.75484413  0.34367714  0.08077741     0.07800
H542        H  0.81691325  0.34237314  0.02147383     0.09000
Cu543      Cu  0.75721919  0.28001538  0.07478436     0.44200
Cu544      Cu  0.81292845  0.27630150  0.02955362     0.42000
Cu545      Cu  0.76331014  0.22338106  0.03221457     0.43900
N546        N  0.72528149  0.25679069  0.06501063    -0.34600
N547        N  0.72658613  0.23686028  0.04777117    -0.28900
C548        C  0.70156711  0.23036547  0.04082854    -0.05000
C549        C  0.68397973  0.24708046  0.05449375     0.07300
C550        C  0.69981806  0.26360076  0.06939938     0.01100
H551        H  0.69666741  0.21599191  0.02556500     0.08700
H552        H  0.69345435  0.28083124  0.08080110     0.07800
N553        N  0.80344233  0.21730739  0.02114566    -0.36100
N554        N  0.82141792  0.23660920  0.02001017    -0.28200
C555        C  0.84490711  0.22635475  0.01163820    -0.03500
C556        C  0.84181874  0.19923996  0.00773249     0.05100
C557        C  0.81515999  0.19434108  0.01356490     0.03200
H558        H  0.86274602  0.23792241  0.00779755     0.08300
H559        H  0.80482814  0.17557277  0.01147426     0.07200
O560        O  0.52968377  0.05604642  0.23927907    -0.72900
O561        O  0.53219093  0.97477076  0.23825178    -0.73900
O562        O  0.49187555  0.01404646  0.23762173    -0.62500
O563        O  0.57047701  0.01695538  0.23682012    -0.70900
O564        O  0.57113150  0.01663955  0.28090102    -0.70400
O565        O  0.48964548  0.01443485  0.28146375    -0.61700
O566        O  0.53099911  0.97606129  0.28239154    -0.74200
O567        O  0.52934316  0.05405317  0.28314234    -0.73000
Cu568      Cu  0.53109982  0.01534011  0.23644367     1.04600
Cu569      Cu  0.53028987  0.01516085  0.28348633     1.04300
C570        C  0.52895302  0.06774703  0.26207237     0.93300
C571        C  0.53185033  0.96293057  0.26071643     0.92500
C572        C  0.47795947  0.01458831  0.25905950     0.84600
C573        C  0.58335639  0.01797730  0.25826353     0.90900
N574        N  0.81091564  0.04096380  0.30289705    -0.27200
N575        N  0.79010259  0.05677381  0.30374932    -0.35100
C576        C  0.78213717  0.06056190  0.32911258     0.01100
C577        C  0.79861697  0.04643317  0.34531215     0.07100
C578        C  0.81658064  0.03401680  0.32791633    -0.06000
H579        H  0.76419777  0.07092911  0.33515280     0.07800
H580        H  0.83103160  0.01916292  0.33265074     0.09000
Cu581      Cu  0.76726604  0.06380470  0.27134775     0.44200
Cu582      Cu  0.82721348  0.02678370  0.26702995     0.42000
Cu583      Cu  0.77758136  0.01853559  0.21631936     0.43900
N584        N  0.73674457  0.04835491  0.24951130    -0.34600
N585        N  0.73976459  0.03038980  0.23037638    -0.28900
C586        C  0.71554833  0.02047232  0.22452874    -0.05000
C587        C  0.69667301  0.03253667  0.24123371     0.07300
C588        C  0.71092964  0.05026605  0.25643881     0.01100
H589        H  0.71213725  0.00527612  0.20967660     0.08700
H590        H  0.70329228  0.06229826  0.27279116     0.07800
N591        N  0.81839795  0.01171086  0.20957363    -0.36100
N592        N  0.83646041  0.01538064  0.22791461    -0.28200
C593        C  0.86074326  0.01050305  0.21718800    -0.03500
C594        C  0.85823555  0.00280706  0.19062757     0.05100
C595        C  0.83082397  0.00400609  0.18682483     0.03200
H596        H  0.87857300  0.01299376  0.22832597     0.08300
H597        H  0.82049311  0.99935268  0.16872711     0.07200
N598        N  0.50032617  0.29506569  0.23532966    -0.27200
N599        N  0.48357958  0.27474694  0.23623480    -0.35100
C600        C  0.47784078  0.26703472  0.21139722     0.01100
C601        C  0.49124538  0.28337287  0.19376313     0.07100
C602        C  0.50554932  0.30080543  0.20962481    -0.06000
H603        H  0.46742402  0.24882619  0.20662216     0.07800
H604        H  0.52020539  0.31519574  0.20292197     0.09000
Cu605      Cu  0.47720050  0.25129739  0.26897513     0.44200
Cu606      Cu  0.51878302  0.31037247  0.26911955     0.42000
Cu607      Cu  0.52837611  0.25874362  0.31613106     0.43900
N608        N  0.49495356  0.21940455  0.28621466    -0.34600
N609        N  0.51600890  0.22199701  0.30116718    -0.28900
C610        C  0.52825889  0.19838786  0.30221977    -0.05000
C611        C  0.51388824  0.17971397  0.28762794     0.07300
C612        C  0.49288598  0.19411604  0.27784653     0.01100
H613        H  0.54718319  0.19592428  0.31135166     0.08700
H614        H  0.47818761  0.18723247  0.26396651     0.07800
N615        N  0.53490766  0.29877578  0.32515212    -0.36100
N616        N  0.53209549  0.31782102  0.30760579    -0.28200
C617        C  0.53774254  0.34135390  0.31924376    -0.03500
C618        C  0.54378197  0.33711965  0.34571614     0.05100
C619        C  0.54205319  0.30973478  0.34847125     0.03200
H620        H  0.53804445  0.35991367  0.30879064     0.08300
H621        H  0.54558007  0.29857791  0.36629222     0.07200
O622        O  0.25198959  0.98752476  0.51732971    -0.72900
O623        O  0.25077703  0.06868060  0.52023124    -0.73900
O624        O  0.25356063  0.02964747  0.47972692    -0.62500
O625        O  0.24653814  0.02702403  0.55826538    -0.70900
O626        O  0.29015488  0.02792744  0.56220825    -0.70400
O627        O  0.29763256  0.03031102  0.48149151    -0.61700
O628        O  0.29469963  0.06786336  0.52299717    -0.74200
O629        O  0.29558681  0.98953415  0.52038617    -0.73000
Cu630      Cu  0.24916560  0.02807532  0.51886626     1.04600
Cu631      Cu  0.29600314  0.02880729  0.52196358     1.04300
C632        C  0.27444332  0.97569951  0.51829210     0.93300
C633        C  0.27322389  0.08083273  0.52118950     0.92500
C634        C  0.27624681  0.03124003  0.46817490     0.84600
C635        C  0.26682496  0.02747998  0.57297387     0.90900
N636        N  0.31130244  0.02961555  0.80198193    -0.27200
N637        N  0.31345575  0.04512896  0.78106368    -0.35100
C638        C  0.33914808  0.04782593  0.77389473     0.01100
C639        C  0.35405768  0.03311996  0.79095579     0.07100
C640        C  0.33584795  0.02201182  0.80881783    -0.06000
H641        H  0.34630240  0.05819416  0.75639641     0.07800
H642        H  0.33998000  0.00884893  0.82502099     0.09000
Cu643      Cu  0.28168393  0.05562995  0.75877943     0.44200
Cu644      Cu  0.27419409  0.01770997  0.81684777     0.42000
Cu645      Cu  0.22163883  0.01765860  0.76687240     0.43900
N646        N  0.25723950  0.04662984  0.72792186    -0.34600
N647        N  0.23610942  0.03099187  0.72976064    -0.28900
C648        C  0.22888571  0.02411518  0.70488223    -0.05000
C649        C  0.24640874  0.03619166  0.68684155     0.07300
C650        C  0.26402990  0.05012454  0.70230350     0.01100
H651        H  0.21341694  0.00987556  0.70039036     0.08700
H652        H  0.28186978  0.06030290  0.69546921     0.07800
N653        N  0.21519742  0.00888347  0.80734365    -0.36100
N654        N  0.23429860  0.00900695  0.82505849    -0.28200
C655        C  0.22401619  0.00148440  0.84873632    -0.03500
C656        C  0.19710005  0.99673072  0.84616010     0.05100
C657        C  0.19224098  0.00129077  0.81955068     0.03200
H658        H  0.23554216  0.99855544  0.86635102     0.08300
H659        H  0.17368247  0.99802601  0.80953545     0.07200
O660        O  0.98869855  0.30243733  0.52213645    -0.72900
O661        O  0.06664756  0.30025066  0.51180890    -0.73900
O662        O  0.02337653  0.30112402  0.47689309    -0.62500
O663        O  0.03222846  0.29923445  0.55707885    -0.70900
O664        O  0.03122669  0.25528684  0.55450272    -0.70400
O665        O  0.02170349  0.25706623  0.47670507    -0.61700
O666        O  0.06690221  0.25651117  0.50980766    -0.74200
O667        O  0.98575301  0.25862275  0.52127442    -0.73000
Cu668      Cu  0.02775685  0.30223977  0.51702992     1.04600
Cu669      Cu  0.02629532  0.25529270  0.51554563     1.04300
C670        C  0.97462734  0.28145528  0.52355163     0.93300
C671        C  0.07955042  0.27870573  0.50907552     0.92500
C672        C  0.02120438  0.27895748  0.46440974     0.84600
C673        C  0.03366122  0.27650726  0.56815035     0.90900
N674        N  0.02248784  0.31198097  0.79596001    -0.27200
N675        N  0.04277965  0.31495203  0.77917507    -0.35100
C676        C  0.04586313  0.34067880  0.77337276     0.01100
C677        C  0.02658098  0.35504053  0.78705123     0.07100
C678        C  0.01188763  0.33606145  0.80112792    -0.06000
H679        H  0.06003974  0.34817331  0.75876332     0.07800
H680        H  0.99382628  0.33903407  0.81269245     0.09000
Cu681      Cu  0.05886589  0.28435075  0.75728459     0.44200
Cu682      Cu  0.00975090  0.27423127  0.80781228     0.42000
Cu683      Cu  0.01942043  0.22502621  0.75549061     0.43900
N684        N  0.05080001  0.26429251  0.72275550    -0.34600
N685        N  0.03463572  0.24356383  0.72134528    -0.28900
C686        C  0.02847103  0.23950208  0.69565656    -0.05000
C687        C  0.04127702  0.25882307  0.68058438     0.07300
C688        C  0.05531016  0.27401219  0.69834203     0.01100
H689        H  0.01471248  0.22454081  0.68866217     0.08700
H690        H  0.06630915  0.29205743  0.69411535     0.07800
N691        N  0.00787024  0.21538031  0.79444961    -0.36100
N692        N  0.00454766  0.23341501  0.81354036    -0.28200
C693        C  0.99684656  0.22113173  0.83611711    -0.03500
C694        C  0.99510495  0.19411685  0.83107422     0.05100
C695        C  0.00219104  0.19118970  0.80442498     0.03200
H696        H  0.99179987  0.23122300  0.85460895     0.08300
H697        H  0.00238659  0.17292440  0.79294022     0.07200
N698        N  0.30686156  0.23438445  0.51581388    -0.27200
N699        N  0.28906535  0.23416709  0.49687018    -0.35100
C700        C  0.28040055  0.20928426  0.49273511     0.01100
C701        C  0.29340116  0.19286772  0.50970462     0.07100
C702        C  0.31010378  0.20927122  0.52414045    -0.06000
H703        H  0.26449281  0.20381840  0.47959240     0.07800
H704        H  0.32267511  0.20356035  0.54024703     0.09000
Cu705      Cu  0.27022568  0.26713821  0.48352127     0.44200
Cu706      Cu  0.32200338  0.26976956  0.53164883     0.42000
Cu707      Cu  0.27005938  0.31922525  0.53123999     0.43900
N708        N  0.23658904  0.28787844  0.49342139    -0.34600
N709        N  0.23556933  0.30573360  0.51279383    -0.28900
C710        C  0.20982778  0.31056193  0.51898106    -0.05000
C711        C  0.19411326  0.29503120  0.50247881     0.07300
C712        C  0.21184543  0.28080804  0.48677192     0.01100
H713        H  0.20317086  0.32295743  0.53544615     0.08700
H714        H  0.20712196  0.26506420  0.47284345     0.07800
N715        N  0.30872557  0.32709793  0.54383053    -0.36100
N716        N  0.32780465  0.30914348  0.54393367    -0.28200
C717        C  0.35023908  0.32068675  0.55280471    -0.03500
C718        C  0.34500637  0.34708781  0.55886901     0.05100
C719        C  0.31856571  0.35046060  0.55255199     0.03200
H720        H  0.36894089  0.31055221  0.55499491     0.08300
H721        H  0.30735196  0.36866813  0.55367790     0.07200
N722        N  0.03205327  0.31487641  0.23854020    -0.27200
N723        N  0.01260423  0.31651320  0.25653469    -0.35100
C724        C  0.00845066  0.34192610  0.26323761     0.01100
C725        C  0.02601481  0.35760398  0.24893083     0.07100
C726        C  0.04064207  0.33980128  0.23309812    -0.06000
H727        H  0.99417014  0.34850640  0.27825875     0.07800
H728        H  0.05605449  0.34449147  0.21858051     0.09000
Cu729      Cu  0.99631662  0.28508519  0.27657753     0.44200
Cu730      Cu  0.04541614  0.27754122  0.22468686     0.42000
Cu731      Cu  0.03443837  0.22697181  0.27599497     0.43900
N732        N  0.00303551  0.26438421  0.31041313    -0.34600
N733        N  0.01896586  0.24372204  0.31099709    -0.28900
C734        C  0.02530591  0.23927461  0.33644459    -0.05000
C735        C  0.01307243  0.25853408  0.35234869     0.07300
C736        C  0.99886649  0.27377877  0.33515726     0.01100
H737        H  0.03864567  0.22392774  0.34261853     0.08700
H738        H  0.98841940  0.29196190  0.33997912     0.07800
N739        N  0.04659534  0.21839027  0.23697723    -0.36100
N740        N  0.05088081  0.23644000  0.21839075    -0.28200
C741        C  0.05813907  0.22387639  0.19555929    -0.03500
C742        C  0.05796381  0.19663532  0.19981228     0.05100
C743        C  0.05088562  0.19408681  0.22643014     0.03200
H744        H  0.06374788  0.23398755  0.17745115     0.08300
H745        H  0.04876414  0.17577031  0.23732496     0.07200
N746        N  0.32328714  0.04258685  0.23819961    -0.27200
N747        N  0.32892828  0.05726358  0.25921855    -0.35100
C748        C  0.35444341  0.05399018  0.26538628     0.01100
C749        C  0.36586173  0.03647842  0.24733978     0.07100
C750        C  0.34545545  0.02947705  0.23030512    -0.06000
H751        H  0.36363949  0.06257720  0.28273578     0.07800
H752        H  0.34607882  0.01481959  0.21450429     0.09000
Cu753      Cu  0.30066486  0.07398376  0.28370647     0.44200
Cu754      Cu  0.28430894  0.04002786  0.22461914     0.42000
Cu755      Cu  0.23444797  0.04936752  0.27813240     0.43900
N756        N  0.27721472  0.06498729  0.31605661    -0.34600
N757        N  0.25330645  0.05409528  0.31482384    -0.28900
C758        C  0.24597493  0.04612985  0.33952253    -0.05000
C759        C  0.26641139  0.05250382  0.35668086     0.07300
C760        C  0.28582636  0.06417278  0.34103309     0.01100
H761        H  0.22755051  0.03598225  0.34451295     0.08700
H762        H  0.30539356  0.07047670  0.34710345     0.07800
N763        N  0.22538443  0.04777327  0.23745598    -0.36100
N764        N  0.24350291  0.04409132  0.21830431    -0.28200
C765        C  0.23163976  0.04537502  0.19461815    -0.03500
C766        C  0.20464550  0.04992348  0.19870812     0.05100
C767        C  0.20157575  0.05161166  0.22625386     0.03200
H768        H  0.24208159  0.04378564  0.17564513     0.08300
H769        H  0.18370948  0.05662467  0.23741234     0.07200
N770        N  0.23490193  0.30511268  0.99728955    -0.27200
N771        N  0.25664251  0.30558259  0.98209083    -0.35100
C772        C  0.26357421  0.33078633  0.97703882     0.01100
C773        C  0.24534571  0.34721823  0.98947313     0.07100
C774        C  0.22740860  0.33036007  0.00229911    -0.06000
H775        H  0.28233800  0.33675019  0.96794570     0.07800
H776        H  0.21181924  0.33606354  0.01632948     0.09000
Cu777      Cu  0.28250608  0.27454791  0.97883780     0.44200
Cu778      Cu  0.22127379  0.26997315  0.01486435     0.42000
Cu779      Cu  0.27629695  0.22570961  0.02957675     0.43900
N780        N  0.31459825  0.25827022  0.99678837    -0.34600
N781        N  0.31283737  0.24120120  0.01649072    -0.28900
C782        C  0.33723420  0.23810559  0.02654106    -0.05000
C783        C  0.35487236  0.25461922  0.01280759     0.07300
C784        C  0.33978783  0.26676212  0.99394408     0.01100
H785        H  0.34163215  0.22486179  0.04257151     0.08700
H786        H  0.34640196  0.28174133  0.97998789     0.07800
N787        N  0.23623549  0.21589261  0.03579458    -0.36100
N788        N  0.21629565  0.23168003  0.03002831    -0.28200
C789        C  0.19322025  0.21891102  0.03542586    -0.03500
C790        C  0.19875882  0.19376914  0.04477022     0.05100
C791        C  0.22630524  0.19284473  0.04518645     0.03200
H792        H  0.17373861  0.22729434  0.03271656     0.08300
H793        H  0.23840960  0.17703555  0.05253421     0.07200
C794        C  0.45933926  0.41727517  0.63780410     0.86600
C795        C  0.47340174  0.43669729  0.61821787    -0.53700
C796        C  0.45707168  0.45333858  0.60403853     0.09500
C797        C  0.42715997  0.44654347  0.61014513     0.20400
C798        C  0.44037426  0.43483091  0.65450864    -0.54400
C799        C  0.42369699  0.45016447  0.64037728     0.09600
C800        C  0.44132847  0.40150384  0.61908080    -0.53900
C801        C  0.42418940  0.41626893  0.60512664     0.10200
H802        H  0.49430736  0.43597403  0.61399030     0.14700
H803        H  0.41207259  0.45775020  0.59991746     0.00400
H804        H  0.43940241  0.43415918  0.67607988     0.15000
H805        H  0.44127073  0.37996466  0.61771061     0.14800
C806        C  0.58047622  0.45033923  0.45741447     0.86600
C807        C  0.59832040  0.46343242  0.43546828    -0.53700
C808        C  0.61400933  0.44605924  0.42137967     0.09500
C809        C  0.61040230  0.41716657  0.42987942     0.20400
C810        C  0.56500925  0.42884180  0.44184559    -0.54400
C811        C  0.58051609  0.41120804  0.42762987     0.09600
C812        C  0.60114261  0.43525760  0.47399302    -0.53900
C813        C  0.61662095  0.41747662  0.45977877     0.10200
H814        H  0.59919703  0.48429662  0.43104205     0.14700
H815        H  0.62301064  0.40351962  0.41777886     0.00400
H816        H  0.54343512  0.42805790  0.44183658     0.15000
H817        H  0.60417252  0.44002576  0.49468113     0.14800
C818        C  0.62683400  0.58341667  0.62668389     0.86600
C819        C  0.64498997  0.60047250  0.60834555    -0.53700
C820        C  0.63198776  0.61816207  0.59269250     0.09500
C821        C  0.60130895  0.61723245  0.59721228     0.20400
C822        C  0.61100304  0.60473831  0.64243167    -0.54400
C823        C  0.59806948  0.62258143  0.62741672     0.09600
C824        C  0.60628134  0.57042833  0.60846320    -0.53900
C825        C  0.59282773  0.58767153  0.59286141     0.10200
H826        H  0.66646364  0.60068349  0.60980903     0.14700
H827        H  0.59043849  0.63148839  0.58483477     0.00400
H828        H  0.61141733  0.60712233  0.66387656     0.15000
H829        H  0.60263818  0.54916572  0.60796608     0.14800
C830        C  0.41210374  0.58502462  0.41207665     0.86600
C831        C  0.42705827  0.57050837  0.43421633    -0.53700
C832        C  0.44312404  0.58605699  0.45046069     0.09500
C833        C  0.43999277  0.61627939  0.44323852     0.20400
C834        C  0.39558858  0.60515199  0.42822832    -0.54400
C835        C  0.40960938  0.62211459  0.44367914     0.09600
C836        C  0.43392301  0.60133989  0.39782375    -0.53900
C837        C  0.44830277  0.61788142  0.41360229     0.10200
H838        H  0.42393215  0.54995864  0.43806683     0.14700
H839        H  0.45080598  0.63112325  0.45479202     0.00400
H840        H  0.37418451  0.60691102  0.42637578     0.15000
H841        H  0.43630995  0.60134582  0.37630949     0.14800
C842        C  0.51478260  0.52714864  0.52702030    -0.02400
C843        C  0.46688889  0.54542585  0.46780158    -0.05700
C844        C  0.46194228  0.57293227  0.47084568     0.00200
C845        C  0.47514634  0.58544552  0.49268450    -0.08400
C846        C  0.49117335  0.57004612  0.50968876    -0.05700
C847        C  0.49433540  0.54201981  0.50791071     0.00200
C848        C  0.48012182  0.52955315  0.48643701    -0.08300
C849        C  0.47792377  0.49979742  0.48044438     0.62100
H850        H  0.46026735  0.53529395  0.45014775     0.12800
H851        H  0.50239812  0.58068515  0.52424006     0.12800
C852        C  0.47426078  0.61509321  0.49819080     0.62300
F853        F  0.45214258  0.49363281  0.47333294    -0.22800
F854        F  0.48327943  0.48370999  0.50140792    -0.20100
F855        F  0.49475476  0.49331630  0.45931658    -0.19800
F856        F  0.44826614  0.62340155  0.50015227    -0.19900
F857        F  0.48809013  0.62829725  0.47823866    -0.20200
F858        F  0.48594950  0.62211679  0.52194165    -0.22900
C859        C  0.54537704  0.57627951  0.58175918    -0.05700
C860        C  0.57219711  0.57753549  0.57377946     0.00200
C861        C  0.57940564  0.56595011  0.54912107    -0.08400
C862        C  0.56068193  0.55066586  0.53516289    -0.05700
C863        C  0.53336887  0.54797510  0.54281037     0.00200
C864        C  0.52558804  0.56321767  0.56640385    -0.08300
C865        C  0.49744897  0.56678612  0.57767839     0.62100
H866        H  0.53973963  0.58565595  0.60053225     0.12800
H867        H  0.56860969  0.53955469  0.51868415     0.12800
C868        C  0.60726799  0.56917625  0.53764525     0.62300
F869        F  0.49305152  0.59351775  0.58254270    -0.22800
F870        F  0.49488214  0.55342994  0.60147419    -0.20100
F871        F  0.47768702  0.55828097  0.56122747    -0.19800
F872        F  0.62480120  0.55573072  0.55314925    -0.19900
F873        F  0.61386120  0.59584459  0.53705287    -0.20200
F874        F  0.60969747  0.55928155  0.51193597    -0.22900
C875        C  0.55851831  0.49589779  0.46700888    -0.05700
C876        C  0.56192520  0.46919427  0.47445355     0.00200
C877        C  0.54771331  0.46118380  0.49790165    -0.08400
C878        C  0.53428799  0.48036547  0.51376308    -0.05700
C879        C  0.53235859  0.50787288  0.50780688     0.00200
C880        C  0.54522125  0.51536726  0.48292482    -0.08300
C881        C  0.54662680  0.54316447  0.47091977     0.62100
H882        H  0.56601534  0.50230142  0.44795088     0.12800
H883        H  0.52412545  0.47248926  0.53092431     0.12800
C884        C  0.54490711  0.43284593  0.50807295     0.62300
F885        F  0.57254387  0.54857693  0.46269664    -0.22800
F886        F  0.53944967  0.56348242  0.48784883    -0.20100
F887        F  0.53061177  0.54391728  0.44897477    -0.19800
F888        F  0.55829739  0.43080138  0.53166154    -0.19900
F889        F  0.55414605  0.41358210  0.49084796    -0.20200
F890        F  0.51827876  0.42719925  0.51298174    -0.22900
C891        C  0.49551020  0.48308420  0.59024834    -0.05700
C892        C  0.46898079  0.47523235  0.58577068     0.00200
C893        C  0.45636367  0.48824798  0.56429404    -0.08400
C894        C  0.47133660  0.50619558  0.54815488    -0.05700
C895        C  0.49931942  0.50998360  0.54942791     0.00200
C896        C  0.51147832  0.49763796  0.57193451    -0.08300
C897        C  0.54107119  0.49760465  0.57838597     0.62100
H898        H  0.50481966  0.47677924  0.60825476     0.12800
H899        H  0.46069119  0.51701891  0.53357963     0.12800
C900        C  0.42719936  0.48455254  0.55784101     0.62300
F901        F  0.54821460  0.47277676  0.58732365    -0.22800
F902        F  0.54579817  0.51592292  0.59837863    -0.20100
F903        F  0.55781496  0.50270345  0.55716357    -0.19800
F904        F  0.41163027  0.49594923  0.57781603    -0.19900
F905        F  0.42133258  0.45791188  0.55462862    -0.20200
F906        F  0.42053453  0.49674378  0.53437833    -0.22900
C907        C  0.38796202  0.37174097  0.55589516    -0.05700
C908        C  0.36386220  0.36715032  0.56977584     0.00200
C909        C  0.35930767  0.38008621  0.59461968    -0.08400
C910        C  0.37877964  0.39778482  0.60420338    -0.05700
C911        C  0.40271268  0.40271736  0.59016999     0.00200
C912        C  0.40762017  0.38909929  0.56573052    -0.08300
C913        C  0.43365659  0.39084128  0.54996119     0.62100
H914        H  0.39175000  0.36114578  0.53734109     0.12800
H915        H  0.37634157  0.40633985  0.62387939     0.12800
C916        C  0.33516416  0.37351397  0.61208915     0.62300
F917        F  0.42853361  0.39713103  0.52389179    -0.22800
F918        F  0.44606155  0.36644260  0.55037441    -0.20100
F919        F  0.45100152  0.40975363  0.55968576    -0.19800
F920        F  0.33363373  0.34638949  0.61587952    -0.19900
F921        F  0.31228050  0.38202738  0.60027904    -0.20200
F922        F  0.33639887  0.38562635  0.63685631    -0.22900
C923        C  0.11967643  0.30673371  0.50132380    -0.05700
C924        C  0.10921991  0.28094424  0.50546562     0.00200
C925        C  0.12733806  0.25944077  0.50670419    -0.08400
C926        C  0.15489645  0.26506670  0.50620322    -0.05700
C927        C  0.16489663  0.29103490  0.50357731     0.00200
C928        C  0.14708378  0.31208595  0.49990691    -0.08300
C929        C  0.15689914  0.33992886  0.49344538     0.62100
H930        H  0.10615093  0.32312684  0.49920358     0.12800
H931        H  0.16904409  0.24910926  0.50790985     0.12800
C932        C  0.11813641  0.23074180  0.50810327     0.62300
F933        F  0.13632576  0.35645475  0.48661440    -0.22800
F934        F  0.17480053  0.33896085  0.47218211    -0.20100
F935        F  0.16915043  0.35101436  0.51522676    -0.19800
F936        F  0.10278827  0.22471266  0.48636325    -0.19900
F937        F  0.10348585  0.22667760  0.53121793    -0.20200
F938        F  0.13927873  0.21327994  0.50790732    -0.22900
C939        C  0.04187408  0.27630127  0.41975169    -0.05700
C940        C  0.01856624  0.27775625  0.43541228     0.00200
C941        C  0.99361342  0.27361875  0.42372212    -0.08400
C942        C  0.99281564  0.26732273  0.39649184    -0.05700
C943        C  0.01617612  0.26449893  0.38096492     0.00200
C944        C  0.04117498  0.26991593  0.39247013    -0.08300
C945        C  0.06698235  0.26930180  0.37624985     0.62100
H946        H  0.06075589  0.27922776  0.42933987     0.12800
H947        H  0.97387148  0.26387114  0.38719430     0.12800
C948        C  0.96809228  0.27514209  0.44025439     0.62300
F949        F  0.08791676  0.28004059  0.39026704    -0.22800
F950        F  0.06448867  0.28386617  0.35329693    -0.20100
F951        F  0.07331732  0.24339989  0.36967316    -0.19800
F952        F  0.96692930  0.29920824  0.45368733    -0.19900
F953        F  0.96744695  0.25478615  0.45844374    -0.20200
F954        F  0.94580007  0.27289689  0.42472872    -0.22900
C955        C  0.01834715  0.28500406  0.61444910    -0.05700
C956        C  0.03754830  0.27410563  0.59704014     0.00200
C957        C  0.05859408  0.25899950  0.60737040    -0.08400
C958        C  0.05900622  0.25441749  0.63485749    -0.05700
C959        C  0.03901323  0.26413926  0.65199478     0.00200
C960        C  0.01856518  0.28006910  0.64191625    -0.08300
C961        C  0.99706404  0.29161664  0.66010770     0.62100
H962        H  0.00267953  0.29671887  0.60626400     0.12800
H963        H  0.07478195  0.24282698  0.64320493     0.12800
C964        C  0.08061627  0.24788124  0.58952839     0.62300
F965        F  0.97895490  0.30636562  0.64623766    -0.22800
F966        F  0.00845687  0.30802582  0.67893338    -0.20100
F967        F  0.98336661  0.27133430  0.67278162    -0.19800
F968        F  0.09110720  0.26774047  0.57358933    -0.19900
F969        F  0.07056406  0.22773566  0.57380257    -0.20200
F970        F  0.10112524  0.23755145  0.60404266    -0.22900
C971        C  0.26870028  0.15585989  0.53133156    -0.05700
C972        C  0.28827707  0.16425190  0.51285753     0.00200
C973        C  0.30137765  0.14550445  0.49632476    -0.08400
C974        C  0.29504816  0.11856907  0.49937652    -0.05700
C975        C  0.27579695  0.10989704  0.51807292     0.00200
C976        C  0.26210417  0.12874054  0.53421246    -0.08300
C977        C  0.24126417  0.12021734  0.55466580     0.62100
H978        H  0.25857161  0.17076537  0.54337650     0.12800
H979        H  0.30522784  0.10387965  0.48708601     0.12800
C980        C  0.32194938  0.15407984  0.47555736     0.62300
F981        F  0.23143534  0.14158695  0.56924774    -0.22800
F982        F  0.25220449  0.10254833  0.57214313    -0.20100
F983        F  0.22022370  0.10811448  0.54202135    -0.19800
F984        F  0.34225028  0.16792585  0.48769469    -0.19900
F985        F  0.31020340  0.17026119  0.45721687    -0.20200
F986        F  0.33296031  0.13263175  0.46200117    -0.22900
C987        C  0.27030221  0.06183235  0.43134820    -0.05700
C988        C  0.27681839  0.03619192  0.43939702     0.00200
C989        C  0.27955372  0.01558610  0.42032482    -0.08400
C990        C  0.27545386  0.02138778  0.39334375    -0.05700
C991        C  0.26865388  0.04706365  0.38534528     0.00200
C992        C  0.26630337  0.06771058  0.40450754    -0.08300
C993        C  0.25898227  0.09568288  0.39660941     0.62100
H994        H  0.26787191  0.07716473  0.44645482     0.12800
H995        H  0.27760545  0.00598744  0.37829122     0.12800
C996        C  0.28632879  0.98769821  0.42877342     0.62300
F997        F  0.25609400  0.11239215  0.41848099    -0.22800
F998        F  0.23518395  0.09515097  0.38336920    -0.20100
F999        F  0.27862412  0.10616795  0.38011640    -0.19800
F1000       F  0.26655004  0.97808753  0.44568404    -0.19900
F1001       F  0.31018318  0.98804440  0.44192171    -0.20200
F1002       F  0.28875882  0.97052686  0.40722634    -0.22900
C1003       C  0.23734058  0.03744327  0.61203069    -0.05700
C1004       C  0.26231093  0.02832078  0.60248979     0.00200
C1005       C  0.28136256  0.02031520  0.62119112    -0.08400
C1006       C  0.27471982  0.02212119  0.64852452    -0.05700
C1007       C  0.24997139  0.03159129  0.65781332     0.00200
C1008       C  0.23089610  0.03940157  0.63934778    -0.08300
C1009       C  0.20429593  0.05076738  0.64845610     0.62100
H1010       H  0.22285810  0.04368600  0.59783481     0.12800
H1011       H  0.28914440  0.01660722  0.66310534     0.12800
C1012       C  0.30855335  0.00990982  0.61272273     0.62300
F1013       F  0.18941177  0.05904736  0.62729986    -0.22800
F1014       F  0.20830759  0.07241495  0.66504795    -0.20100
F1015       F  0.18974601  0.03167677  0.66200770    -0.19800
F1016       F  0.32331831  0.02997670  0.60088079    -0.19900
F1017       F  0.30576261  0.98892980  0.59503279    -0.20200
F1018       F  0.32266403  0.00089774  0.63411026    -0.22900
C1019       C  0.57264399  0.34918504  0.38333865    -0.05700
C1020       C  0.55204409  0.35666519  0.36667824     0.00200
C1021       C  0.53899155  0.38117901  0.37195213    -0.08400
C1022       C  0.54861304  0.39804517  0.39226834    -0.05700
C1023       C  0.56960549  0.39071015  0.40866389     0.00200
C1024       C  0.58077061  0.36502019  0.40492793    -0.08300
C1025       C  0.60015216  0.35266241  0.42378222     0.62100
H1026       H  0.58215678  0.33018699  0.37986082     0.12800
H1027       H  0.53999339  0.41751935  0.39508100     0.12800
C1028       C  0.51450780  0.38945211  0.35707282     0.62300
F1029       F  0.59422247  0.32601575  0.42709753    -0.22800
F1030       F  0.59871867  0.36428514  0.44863846    -0.20100
F1031       F  0.62575248  0.35485867  0.41344488    -0.19800
F1032       F  0.49652607  0.36860592  0.35592196    -0.19900
F1033       F  0.52165362  0.39720633  0.33166760    -0.20200
F1034       F  0.50175051  0.41060873  0.36950760    -0.22900
C1035       C  0.51211639  0.14150730  0.25568690    -0.05700
C1036       C  0.52045985  0.15147639  0.28053979     0.00200
C1037       C  0.53309153  0.13383986  0.29806323    -0.08400
C1038       C  0.53717834  0.10745781  0.28976377    -0.05700
C1039       C  0.52765092  0.09718278  0.26563831     0.00200
C1040       C  0.51487398  0.11456282  0.24814531    -0.08300
C1041       C  0.50322370  0.10472255  0.22223608     0.62100
H1042       H  0.50288194  0.15497135  0.24214752     0.12800
H1043       H  0.54747452  0.09420491  0.30277535     0.12800
C1044       C  0.54156422  0.14174828  0.32589700     0.62300
F1045       F  0.49017583  0.12463532  0.20909803    -0.22800
F1046       F  0.48503954  0.08457591  0.22729161    -0.20100
F1047       F  0.52332694  0.09536603  0.20553850    -0.19800
F1048       F  0.52184679  0.15625829  0.33882092    -0.19900
F1049       F  0.56487805  0.15632078  0.32438048    -0.20200
F1050       F  0.54630883  0.11979183  0.34138394    -0.22900
C1051       C  0.43882441  0.02381581  0.23149224    -0.05700
C1052       C  0.44838227  0.01687234  0.25668816     0.00200
C1053       C  0.42968382  0.01333162  0.27796248    -0.08400
C1054       C  0.40260573  0.01839973  0.27344718    -0.05700
C1055       C  0.39353984  0.02658514  0.24860411     0.00200
C1056       C  0.41183773  0.02876839  0.22703679    -0.08300
C1057       C  0.40327033  0.03731123  0.19964597     0.62100
H1058       H  0.45285647  0.02616251  0.21508132     0.12800
H1059       H  0.38820594  0.01682012  0.28968480     0.12800
C1060       C  0.43788398  0.00456532  0.30535189     0.62300
F1061       F  0.42474816  0.04105144  0.18238198    -0.22800
F1062       F  0.38955798  0.06098072  0.20149167    -0.20100
F1063       F  0.38716502  0.01795583  0.18873922    -0.19800
F1064       F  0.45283979  0.02431654  0.31722711    -0.19900
F1065       F  0.45257967  0.98150579  0.30320927    -0.20200
F1066       F  0.41610151  0.99944796  0.32185920    -0.22900
C1067       C  0.62939096  0.00012180  0.25754107    -0.05700
C1068       C  0.61249422  0.02203869  0.25599315     0.00200
C1069       C  0.62326090  0.04704901  0.24882142    -0.08400
C1070       C  0.65074917  0.04931450  0.24354047    -0.05700
C1071       C  0.66768251  0.02735133  0.24461316     0.00200
C1072       C  0.65696511  0.00230127  0.25204423    -0.08300
C1073       C  0.67449815  0.97813695  0.25482379     0.62100
H1074       H  0.62076573  0.98112108  0.26254939     0.12800
H1075       H  0.65932537  0.06839919  0.23838185     0.12800
C1076       C  0.60566388  0.07128821  0.24691591     0.62300
F1077       F  0.66046961  0.95666793  0.26500695    -0.22800
F1078       F  0.69503394  0.98388105  0.27182373    -0.20100
F1079       F  0.68487735  0.97073797  0.23023217    -0.19800
F1080       F  0.59201763  0.07518265  0.27077607    -0.19900
F1081       F  0.58766287  0.06762772  0.22682677    -0.20200
F1082       F  0.62023778  0.09405282  0.24145081    -0.22900
C1083       C  0.47991013  0.27355961  0.11969602    -0.05700
C1084       C  0.50586094  0.26840296  0.11046675     0.00200
C1085       C  0.52689708  0.26764643  0.12855279    -0.08400
C1086       C  0.52128858  0.27260430  0.15565710    -0.05700
C1087       C  0.49537066  0.27813278  0.16496470     0.00200
C1088       C  0.47417700  0.27829191  0.14684782    -0.08300
C1089       C  0.44586783  0.28442468  0.15593455     0.62100
H1090       H  0.46424397  0.27435036  0.10530362     0.12800
H1091       H  0.53716454  0.27232115  0.16983649     0.12800
C1092       C  0.55516132  0.26220635  0.11896760     0.62300
F1093       F  0.42894714  0.28626112  0.13471803    -0.22800
F1094       F  0.44527156  0.30834370  0.16965447    -0.20100
F1095       F  0.43628426  0.26455145  0.17231085    -0.19800
F1096       F  0.56366206  0.28213630  0.10204708    -0.19900
F1097       F  0.55608243  0.23816403  0.10548370    -0.20200
F1098       F  0.57257259  0.26108205  0.13983488    -0.22900
C1099       C  0.42269124  0.27041744  0.04198252    -0.05700
C1100       C  0.43900945  0.26801166  0.01917713     0.00200
C1101       C  0.42754419  0.26266842  0.99432353    -0.08400
C1102       C  0.40010308  0.25767196  0.99337620    -0.05700
C1103       C  0.38375207  0.25891802  0.01632535     0.00200
C1104       C  0.39493859  0.26675165  0.04087591    -0.08300
C1105       C  0.37777322  0.27256275  0.06540625     0.62100
H1106       H  0.43193621  0.27494049  0.06075122     0.12800
H1107       H  0.39109938  0.25296975  0.97453290     0.12800
C1108       C  0.44412018  0.26380165  0.96887522     0.62300
F1109       F  0.39235313  0.28419509  0.08548049    -0.22800
F1110       F  0.36676877  0.24935223  0.07510265    -0.20100
F1111       F  0.35770958  0.28989487  0.05909817    -0.19800
F1112       F  0.46407908  0.24509497  0.96917226    -0.19900
F1113       F  0.45523581  0.28884669  0.96683754    -0.20200
F1114       F  0.42903963  0.25918780  0.94659325    -0.22900
C1115       C  0.60890815  0.23845072  0.05464577    -0.05700
C1116       C  0.60076166  0.26198160  0.04236286     0.00200
C1117       C  0.62042987  0.28080954  0.03426610    -0.08400
C1118       C  0.64743029  0.27489432  0.03825619    -0.05700
C1119       C  0.65530531  0.25110089  0.04994690     0.00200
C1120       C  0.63581282  0.23277703  0.05875728    -0.08300
C1121       C  0.64342531  0.20775234  0.07319684     0.62100
H1122       H  0.59388042  0.22439056  0.06127602     0.12800
H1123       H  0.66279697  0.28889556  0.03228054     0.12800
C1124       C  0.61334526  0.30682764  0.02125336     0.62300
F1125       F  0.62135356  0.19299715  0.08102999    -0.22800
F1126       F  0.65739362  0.21445430  0.09569129    -0.20100
F1127       F  0.65914328  0.19200289  0.05670665    -0.19800
F1128       F  0.59909974  0.32253337  0.03911169    -0.19900
F1129       F  0.59832974  0.30200523  0.99902634    -0.20200
F1130       F  0.63574518  0.32097304  0.01320861    -0.22900
C1131       C  0.37182855  0.53619220  0.36526622    -0.05700
C1132       C  0.35732959  0.55475147  0.35101846     0.00200
C1133       C  0.36272935  0.58196958  0.35481173    -0.08400
C1134       C  0.38075576  0.58965160  0.37440408    -0.05700
C1135       C  0.39417405  0.57146132  0.39071758     0.00200
C1136       C  0.39063758  0.54379164  0.38464243    -0.08300
C1137       C  0.40645651  0.52186348  0.39710727     0.62100
H1138       H  0.36792011  0.51539509  0.36124731     0.12800
H1139       H  0.38438889  0.61061758  0.37734542     0.12800
C1140       C  0.35010699  0.60295300  0.33771223     0.62300
F1141       F  0.39715461  0.51762364  0.42276827    -0.22800
F1142       F  0.43322666  0.52830241  0.39667119    -0.20100
F1143       F  0.40392389  0.49807820  0.38332016    -0.19800
F1144       F  0.32312241  0.60415963  0.34317997    -0.19900
F1145       F  0.35428368  0.59675109  0.31110309    -0.20200
F1146       F  0.36077458  0.62794766  0.34226508    -0.22900
C1147       C  0.14112406  0.52543450  0.24401280    -0.05700
C1148       C  0.15078383  0.53511219  0.26839364     0.00200
C1149       C  0.13277226  0.54755617  0.28659667    -0.08400
C1150       C  0.10559664  0.54763289  0.28060518    -0.05700
C1151       C  0.09561606  0.53526392  0.25763228     0.00200
C1152       C  0.11381476  0.52497995  0.23833082    -0.08300
C1153       C  0.10463864  0.51228599  0.21257761     0.62100
H1154       H  0.15518985  0.51689900  0.22981549     0.12800
H1155       H  0.09157007  0.55654265  0.29461341     0.12800
C1156       C  0.14152221  0.55973272  0.31275649     0.62300
F1157       F  0.12573721  0.50303596  0.19704725    -0.22800
F1158       F  0.09123576  0.53075401  0.19787982    -0.20100
F1159       F  0.08802619  0.49097464  0.21813199    -0.19800
F1160       F  0.15714959  0.58183967  0.30778889    -0.19900
F1161       F  0.15558105  0.54143588  0.32703399    -0.20200
F1162       F  0.12012660  0.56784211  0.32854386    -0.22900
C1163       C  0.00157196  0.39968471  0.24921835    -0.05700
C1164       C  0.02635278  0.38711135  0.25035781     0.00200
C1165       C  0.04927210  0.40252359  0.25622865    -0.08400
C1166       C  0.04653032  0.43025904  0.25974479    -0.05700
C1167       C  0.02170905  0.44260132  0.25815431     0.00200
C1168       C  0.99880685  0.42713724  0.25318138    -0.08300
C1169       C  0.97145656  0.43966046  0.25250231     0.62100
H1170       H  0.98415484  0.38764165  0.24531548     0.12800
H1171       H  0.06379628  0.44260378  0.26340979     0.12800
C1172       C  0.07626102  0.38986834  0.25947336     0.62300
F1173       F  0.95157781  0.42089581  0.24906134    -0.22800
F1174       F  0.97046450  0.45735332  0.23175282    -0.20100
F1175       F  0.96630843  0.45298563  0.27621263    -0.19800
F1176       F  0.08537463  0.37995693  0.23528199    -0.19900
F1177       F  0.07435202  0.36948316  0.27762890    -0.20200
F1178       F  0.09487899  0.40796485  0.26856995    -0.22900
C1179       C  0.01569053  0.61689871  0.23071142    -0.05700
C1180       C  0.00629874  0.60556935  0.25470312     0.00200
C1181       C  0.99590173  0.62255242  0.27508886    -0.08400
C1182       C  0.99535962  0.65010272  0.27054556    -0.05700
C1183       C  0.00508784  0.66115213  0.24674466     0.00200
C1184       C  0.01568988  0.64444795  0.22656328    -0.08300
C1185       C  0.02807507  0.65584541  0.20132780     0.62100
H1186       H  0.02390639  0.60399739  0.21532736     0.12800
H1187       H  0.98796662  0.66349263  0.28593821     0.12800
C1188       C  0.98554461  0.61203081  0.30155516     0.62300
F1189       F  0.03868026  0.63628183  0.18481857    -0.22800
F1190       F  0.04835486  0.67328036  0.20774004    -0.20100
F1191       F  0.00902116  0.66921453  0.18743680    -0.19800
F1192       F  0.00631944  0.60160893  0.31555259    -0.19900
F1193       F  0.96650959  0.59259605  0.29735649    -0.20200
F1194       F  0.97397762  0.63178719  0.31715642    -0.22900
C1195       C  0.28876765  0.47772306  0.11165671    -0.05700
C1196       C  0.26748431  0.49392501  0.10436463     0.00200
C1197       C  0.25063774  0.50496240  0.12452107    -0.08400
C1198       C  0.25586189  0.49929954  0.15127473    -0.05700
C1199       C  0.27734770  0.48338205  0.15839735     0.00200
C1200       C  0.29390861  0.47209448  0.13835181    -0.08300
C1201       C  0.31635800  0.45353392  0.14510675     0.62100
H1202       H  0.30148325  0.46938513  0.09611106     0.12800
H1203       H  0.24336821  0.50761854  0.16702023     0.12800
C1204       C  0.22798372  0.52342499  0.11808712     0.62300
F1205       F  0.32910293  0.44350212  0.12252882    -0.22800
F1206       F  0.30630251  0.43238700  0.15955809    -0.20100
F1207       F  0.33502738  0.46689759  0.15997655    -0.19800
F1208       F  0.20887210  0.50973270  0.10405831    -0.19900
F1209       F  0.23754379  0.54441444  0.10307548    -0.20200
F1210       F  0.21585077  0.53380291  0.14084120    -0.22900
C1211       C  0.24276330  0.42222547  0.98692738    -0.05700
C1212       C  0.26113974  0.42938790  0.00644988     0.00200
C1213       C  0.27494607  0.40934290  0.01988465    -0.08400
C1214       C  0.26880909  0.38260829  0.01412462    -0.05700
C1215       C  0.24991291  0.37561984  0.99511820     0.00200
C1216       C  0.23731850  0.39555459  0.98063273    -0.08300
C1217       C  0.21863139  0.38849600  0.95836922     0.62100
H1218       H  0.23264586  0.43782667  0.97658038     0.12800
H1219       H  0.27879126  0.36684485  0.02434740     0.12800
C1220       C  0.29555646  0.41609099  0.04047866     0.62300
F1221       F  0.20906181  0.41085386  0.94610441    -0.22800
F1222       F  0.19721553  0.37415184  0.96839953    -0.20100
F1223       F  0.23196675  0.37332039  0.93934828    -0.19800
F1224       F  0.28433939  0.43188412  0.06031011    -0.19900
F1225       F  0.31661806  0.42948295  0.02850683    -0.20200
F1226       F  0.30548416  0.39358284  0.05216762    -0.22900
C1227       C  0.27620418  0.63591135  0.04183385    -0.05700
C1228       C  0.25015788  0.64595866  0.04295602     0.00200
C1229       C  0.22845501  0.62803710  0.04170607    -0.08400
C1230       C  0.23372989  0.60089855  0.03822652    -0.05700
C1231       C  0.25976455  0.59057872  0.03710045     0.00200
C1232       C  0.28153471  0.60853397  0.03948775    -0.08300
C1233       C  0.31020974  0.59931102  0.04027742     0.62100
H1234       H  0.29258483  0.64986696  0.04296461     0.12800
H1235       H  0.21700974  0.58746451  0.03637096     0.12800
C1236       C  0.19968834  0.63691003  0.04465510     0.62300
F1237       F  0.32774786  0.62018160  0.04431383    -0.22800
F1238       F  0.31738348  0.58713940  0.01648169    -0.20100
F1239       F  0.31305650  0.58174512  0.06095010    -0.19800
F1240       F  0.19165956  0.64803613  0.02120807    -0.19900
F1241       F  0.19684864  0.65512225  0.06526312    -0.20200
F1242       F  0.18279076  0.61581920  0.05030279    -0.22900
C1243       C  0.51054850  0.38151514  0.68391430    -0.05700
C1244       C  0.49444096  0.36103512  0.69404487     0.00200
C1245       C  0.46758139  0.35967375  0.68668856    -0.08400
C1246       C  0.45806926  0.37848608  0.66884028    -0.05700
C1247       C  0.47433622  0.39829414  0.65671991     0.00200
C1248       C  0.50118601  0.40045914  0.66567923    -0.08300
C1249       C  0.52033937  0.42243376  0.65747030     0.62100
H1250       H  0.53093528  0.38232667  0.69035181     0.12800
H1251       H  0.43717431  0.37784935  0.66426168     0.12800
C1252       C  0.44867484  0.33885861  0.69819648     0.62300
F1253       F  0.54205188  0.42385154  0.67387782    -0.22800
F1254       F  0.50797610  0.44682932  0.65915454    -0.20100
F1255       F  0.53002702  0.41748755  0.63199471    -0.19800
F1256       F  0.44914818  0.33976325  0.72566539    -0.19900
F1257       F  0.45615558  0.31390555  0.68936914    -0.20200
F1258       F  0.42270540  0.34279074  0.69067335    -0.22900
C1259       C  0.56102990  0.26684930  0.90872968    -0.05700
C1260       C  0.54268766  0.28170527  0.89417230     0.00200
C1261       C  0.51844995  0.28948115  0.90709320    -0.08400
C1262       C  0.51512613  0.28472445  0.93443771    -0.05700
C1263       C  0.53343050  0.27016211  0.94873835     0.00200
C1264       C  0.55641273  0.26023356  0.93561392    -0.08300
C1265       C  0.57611287  0.24321554  0.95008828     0.62100
H1266       H  0.57923033  0.26038348  0.89889328     0.12800
H1267       H  0.49795471  0.29253575  0.94500416     0.12800
C1268       C  0.49546379  0.30197016  0.89279456     0.62300
F1269       F  0.59779829  0.23651706  0.93404495    -0.22800
F1270       F  0.56377419  0.21998655  0.95821284    -0.20100
F1271       F  0.58533032  0.25670443  0.97211081    -0.19800
F1272       F  0.49156250  0.28946316  0.86858337    -0.19900
F1273       F  0.50044016  0.32868766  0.88920850    -0.20200
F1274       F  0.47189007  0.29962199  0.90736139    -0.22900
C1275       C  0.52478685  0.11150446  0.75079481    -0.05700
C1276       C  0.52591122  0.10111997  0.77673227     0.00200
C1277       C  0.53015528  0.11901486  0.79825914    -0.08400
C1278       C  0.53327741  0.14629943  0.79274859    -0.05700
C1279       C  0.53296828  0.15623040  0.76669092     0.00200
C1280       C  0.52888958  0.13844837  0.74524556    -0.08300
C1281       C  0.53007663  0.14725276  0.71639773     0.62100
H1282       H  0.52104894  0.09818404  0.73429908     0.12800
H1283       H  0.53649806  0.16022961  0.80889442     0.12800
C1284       C  0.53211094  0.10972616  0.82676220     0.62300
F1285       F  0.53106749  0.12587588  0.69889572    -0.22800
F1286       F  0.55259313  0.16253421  0.71166152    -0.20100
F1287       F  0.50769948  0.16168817  0.71082049    -0.19800
F1288       F  0.55301391  0.09221194  0.82871032    -0.19900
F1289       F  0.50863797  0.09742188  0.83465233    -0.20200
F1290       F  0.53660100  0.13058940  0.84425311    -0.22900
C1291       C  0.61660513  0.03576383  0.77320543    -0.05700
C1292       C  0.60127686  0.01407821  0.78192259     0.00200
C1293       C  0.61382745  0.99206508  0.79346259    -0.08400
C1294       C  0.64156689  0.99265059  0.79618385    -0.05700
C1295       C  0.65683871  0.01460620  0.78815600     0.00200
C1296       C  0.64438805  0.03641435  0.77612276    -0.08300
C1297       C  0.66048082  0.05987868  0.76586621     0.62100
H1298       H  0.60654355  0.05236944  0.76446075     0.12800
H1299       H  0.65163941  0.97590572  0.80465927     0.12800
C1300       C  0.59799095  0.96793495  0.80251093     0.62300
F1301       F  0.64462628  0.07847973  0.75396453    -0.22800
F1302       F  0.67918934  0.05125331  0.74721481    -0.20100
F1303       F  0.67326358  0.07221328  0.78669421    -0.19800
F1304       F  0.58219582  0.95883855  0.78213378    -0.19900
F1305       F  0.58210886  0.97467765  0.82426376    -0.20200
F1306       F  0.61432769  0.94736897  0.80978206    -0.22900
C1307       C  0.39923162  0.05202067  0.79035142    -0.05700
C1308       C  0.38310058  0.02931293  0.78851294     0.00200
C1309       C  0.39470138  0.00449540  0.78176286    -0.08400
C1310       C  0.42248191  0.00323043  0.77778046    -0.05700
C1311       C  0.43855712  0.02587582  0.78036217     0.00200
C1312       C  0.42694557  0.05065749  0.78672942    -0.08300
C1313       C  0.44394376  0.07544069  0.78986977     0.62100
H1314       H  0.38989023  0.07086305  0.79499459     0.12800
H1315       H  0.43197074  0.98444539  0.77320930     0.12800
C1316       C  0.37786922  0.97964110  0.77831408     0.62300
F1317       F  0.42864983  0.09790440  0.79396075    -0.22800
F1318       F  0.45950393  0.07914401  0.76718548    -0.20100
F1319       F  0.46021476  0.07272673  0.81143874    -0.19800
F1320       F  0.35807079  0.98418581  0.76030461    -0.19900
F1321       F  0.36644906  0.97258934  0.80246571    -0.20200
F1322       F  0.39282974  0.95841946  0.76894920    -0.22900
C1323       C  0.80810255  0.04031290  0.41987876    -0.05700
C1324       C  0.78194582  0.03488088  0.42922490     0.00200
C1325       C  0.76121480  0.03379832  0.41046677    -0.08400
C1326       C  0.76782536  0.03706481  0.38328338    -0.05700
C1327       C  0.79403848  0.04191469  0.37420390     0.00200
C1328       C  0.81451321  0.04412977  0.39287579    -0.08300
C1329       C  0.84294539  0.05125422  0.38472477     0.62100
H1330       H  0.82394517  0.04170714  0.43401057     0.12800
H1331       H  0.75237751  0.03585450  0.36868195     0.12800
C1332       C  0.73228140  0.02939761  0.41859982     0.62300
F1333       F  0.85824628  0.05753748  0.40646977    -0.22800
F1334       F  0.84323344  0.07304267  0.36822213    -0.20100
F1335       F  0.85471704  0.02999657  0.37168750    -0.19800
F1336       F  0.72377424  0.04982140  0.43519940    -0.19900
F1337       F  0.72945806  0.00549200  0.43151095    -0.20200
F1338       F  0.71579985  0.02869156  0.39692600    -0.22900
C1339       C  0.80164740  0.01317166  0.60302314    -0.05700
C1340       C  0.77646028  0.01974684  0.59319401     0.00200
C1341       C  0.75510469  0.02400029  0.61171707    -0.08400
C1342       C  0.76026025  0.02250153  0.63914345    -0.05700
C1343       C  0.78560124  0.01652104  0.64860736     0.00200
C1344       C  0.80657427  0.01123954  0.63026272    -0.08300
C1345       C  0.83386848  0.00265522  0.63917356     0.62100
H1346       H  0.81787132  0.00932999  0.58908170     0.12800
H1347       H  0.74434769  0.02578326  0.65362485     0.12800
C1348       C  0.72698241  0.02963965  0.60305134     0.62300
F1349       F  0.84993488  0.99446484  0.61798579    -0.22800
F1350       F  0.83136896  0.98165254  0.65655559    -0.20100
F1351       F  0.84650909  0.02361185  0.65160224    -0.19800
F1352       F  0.71749929  0.00830207  0.58850463    -0.19900
F1353       F  0.72664461  0.05223787  0.58776276    -0.20200
F1354       F  0.70974114  0.03363454  0.62453595    -0.22900
C1355       C  0.66131371  0.36892518  0.49728746    -0.05700
C1356       C  0.68405891  0.36860563  0.48058225     0.00200
C1357       C  0.68527431  0.38597589  0.45861648    -0.08400
C1358       C  0.66332834  0.40237026  0.45380641    -0.05700
C1359       C  0.64010987  0.40233183  0.46999964     0.00200
C1360       C  0.63943593  0.38572445  0.49280159    -0.08300
C1361       C  0.61597325  0.38498563  0.51231206     0.62100
H1362       H  0.66091090  0.35571090  0.51412257     0.12800
H1363       H  0.66408680  0.41530851  0.43679187     0.12800
C1364       C  0.70915078  0.38668232  0.43961944     0.62300
F1365       F  0.61842581  0.36506868  0.53083161    -0.22800
F1366       F  0.59268562  0.38039321  0.49903415    -0.20100
F1367       F  0.61439665  0.40873085  0.52615571    -0.19800
F1368       F  0.71505826  0.36131828  0.43066064    -0.19900
F1369       F  0.73080450  0.39728876  0.45245567    -0.20200
F1370       F  0.70459145  0.40215552  0.41761227    -0.22900
C1371       C  0.76896324  0.14885800  0.54143623    -0.05700
C1372       C  0.76304192  0.16277619  0.51817243     0.00200
C1373       C  0.76393712  0.14897179  0.49335018    -0.08400
C1374       C  0.76902140  0.12148454  0.49314879    -0.05700
C1375       C  0.77440133  0.10779186  0.51648229     0.00200
C1376       C  0.77496387  0.12163857  0.54095910    -0.08300
C1377       C  0.78187811  0.10758006  0.56637934     0.62100
H1378       H  0.76885363  0.15955509  0.56020933     0.12800
H1379       H  0.76844347  0.11026778  0.47467678     0.12800
C1380       C  0.76020379  0.16276619  0.46703165     0.62300
F1381       F  0.78077063  0.12445508  0.58825829    -0.22800
F1382       F  0.80736717  0.09760501  0.56399778    -0.20100
F1383       F  0.76428202  0.08690430  0.57092021    -0.19800
F1384       F  0.77538784  0.18572231  0.46588244    -0.19900
F1385       F  0.73370570  0.16877853  0.46411045    -0.20200
F1386       F  0.76797302  0.14680650  0.44570976    -0.22900
C1387       C  0.90601830  0.30890317  0.54243919    -0.05700
C1388       C  0.88956852  0.29271044  0.52713435     0.00200
C1389       C  0.90075918  0.27141873  0.51215262    -0.08400
C1390       C  0.92850729  0.26751632  0.51246557    -0.05700
C1391       C  0.94525565  0.28438618  0.52698585     0.00200
C1392       C  0.93369134  0.30508369  0.54285648    -0.08300
C1393       C  0.95014682  0.32268391  0.56095247     0.62100
H1394       H  0.89689640  0.32461593  0.55425227     0.12800
H1395       H  0.93740366  0.25166205  0.50074279     0.12800
C1396       C  0.88345686  0.25338160  0.49537729     0.62300
F1397       F  0.93438423  0.33644908  0.57922940    -0.22800
F1398       F  0.96436605  0.34104337  0.54606744    -0.20100
F1399       F  0.96744760  0.30731824  0.57502856    -0.19800
F1400       F  0.87028561  0.26835836  0.47699976    -0.19900
F1401       F  0.86501352  0.24034445  0.51137032    -0.20200
F1402       F  0.89826966  0.23439610  0.48172133    -0.22900
C1403       C  0.38338623  0.49012032  0.69144984    -0.05700
C1404       C  0.35721351  0.48377964  0.68416257     0.00200
C1405       C  0.35337474  0.46977808  0.65974519    -0.08400
C1406       C  0.37592283  0.46154885  0.64475937    -0.05700
C1407       C  0.40187409  0.46584364  0.65347582     0.00200
C1408       C  0.40572046  0.48203687  0.67625046    -0.08300
C1409       C  0.43277918  0.49171638  0.68513967     0.62100
H1410       H  0.38657754  0.50176286  0.70933581     0.12800
H1411       H  0.37333016  0.45071958  0.62639677     0.12800
C1412       C  0.32608670  0.46231731  0.64953754     0.62300
F1413       F  0.43161584  0.51856988  0.69107396    -0.22800
F1414       F  0.45242680  0.48833075  0.66577421    -0.20100
F1415       F  0.43974190  0.47827583  0.70773955    -0.19800
F1416       F  0.31366056  0.48469789  0.64041064    -0.19900
F1417       F  0.31082008  0.45064179  0.66944868    -0.20200
F1418       F  0.32766859  0.44437861  0.62852792    -0.22900
C1419       C  0.28150060  0.54941224  0.90638898    -0.05700
C1420       C  0.27595706  0.52825557  0.88905212     0.00200
C1421       C  0.26309727  0.50514531  0.89894468    -0.08400
C1422       C  0.25790360  0.50329641  0.92647556    -0.05700
C1423       C  0.26491907  0.52386716  0.94393289     0.00200
C1424       C  0.27623273  0.54759617  0.93384204    -0.08300
C1425       C  0.28244918  0.57091956  0.95205633     0.62100
H1426       H  0.29036398  0.56729364  0.89822842     0.12800
H1427       H  0.24922135  0.48536464  0.93471726     0.12800
C1428       C  0.25455537  0.48276666  0.88054762     0.62300
F1429       F  0.29045368  0.59310850  0.93791991    -0.22800
F1430       F  0.30266938  0.56430022  0.96882196    -0.20100
F1431       F  0.26002723  0.57751360  0.96705463    -0.19800
F1432       F  0.27670395  0.47038332  0.86962707    -0.19900
F1433       F  0.23937411  0.49272845  0.86039435    -0.20200
F1434       F  0.23944838  0.46385784  0.89387650    -0.22900
C1435       C  0.14303460  0.53374563  0.78290699    -0.05700
C1436       C  0.15247100  0.53971694  0.75713532     0.00200
C1437       C  0.13418857  0.54300600  0.73658813    -0.08400
C1438       C  0.10711310  0.53855948  0.74226527    -0.05700
C1439       C  0.09742986  0.53170877  0.76788559     0.00200
C1440       C  0.11576127  0.53008681  0.78888632    -0.08300
C1441       C  0.10702569  0.52473031  0.81743348     0.62100
H1442       H  0.15740903  0.53192343  0.79846445     0.12800
H1443       H  0.09321032  0.54064835  0.72634055     0.12800
C1444       C  0.14291952  0.55207388  0.70899857     0.62300
F1445       F  0.12835756  0.52391372  0.83431563    -0.22800
F1446       F  0.09395299  0.50054728  0.81888925    -0.20100
F1447       F  0.09035436  0.54474567  0.82650378    -0.19800
F1448       F  0.15646595  0.53193799  0.69586546    -0.19900
F1449       F  0.15925178  0.57416766  0.71092764    -0.20200
F1450       F  0.12147712  0.55888406  0.69374570    -0.22900
C1451       C  0.01521061  0.42876236  0.80069797    -0.05700
C1452       C  0.01959568  0.43966302  0.77520850     0.00200
C1453       C  0.02516437  0.42215703  0.75352794    -0.08400
C1454       C  0.02550094  0.39462593  0.75825750    -0.05700
C1455       C  0.02188453  0.38398296  0.78387068     0.00200
C1456       C  0.01705076  0.40144058  0.80562065    -0.08300
C1457       C  0.01517374  0.39182214  0.83415459     0.62100
H1458       H  0.01068123  0.44195112  0.81725887     0.12800
H1459       H  0.02928652  0.38103352  0.74183549     0.12800
C1460       C  0.03186859  0.43212679  0.72576472     0.62300
F1461       F  0.01615632  0.41265283  0.85227760    -0.22800
F1462       F  0.03617231  0.37518423  0.83927043    -0.20100
F1463       F  0.99142045  0.37850285  0.83840297    -0.19800
F1464       F  0.05316994  0.44959415  0.72675122    -0.19900
F1465       F  0.01010432  0.44471367  0.71546687    -0.20200
F1466       F  0.03890737  0.41168057  0.70847292    -0.22900
C1467       C  0.99443873  0.61248662  0.79900609    -0.05700
C1468       C  0.01059679  0.60305491  0.77781068     0.00200
C1469       C  0.02636015  0.62123038  0.76289069    -0.08400
C1470       C  0.02467428  0.64845392  0.76939172    -0.05700
C1471       C  0.00843739  0.65761698  0.79056128     0.00200
C1472       C  0.99325671  0.63949370  0.80578550    -0.08300
C1473       C  0.97590469  0.64878730  0.82906788     0.62100
H1474       H  0.98273673  0.59835692  0.81045359     0.12800
H1475       H  0.03581700  0.66291645  0.75782076     0.12800
C1476       C  0.04531939  0.61201840  0.74084070     0.62300
F1477       F  0.96296134  0.62786066  0.84155334    -0.22800
F1478       F  0.95688912  0.66614215  0.82032354    -0.20100
F1479       F  0.99150785  0.66159676  0.84756096    -0.19800
F1480       F  0.03107639  0.60103349  0.72023749    -0.19900
F1481       F  0.06251124  0.59328029  0.75048502    -0.20200
F1482       F  0.06047391  0.63276904  0.73072498    -0.22900
C1483       C  0.03365552  0.80721989  0.42810387    -0.05700
C1484       C  0.02410713  0.78271755  0.43790197     0.00200
C1485       C  0.01280814  0.76419443  0.41986143    -0.08400
C1486       C  0.01236332  0.77064777  0.39270006    -0.05700
C1487       C  0.02181479  0.79512929  0.38315551     0.00200
C1488       C  0.03235670  0.81392684  0.40110089    -0.08300
C1489       C  0.04245687  0.84078987  0.39176483     0.62100
H1490       H  0.04200382  0.82141948  0.44193673     0.12800
H1491       H  0.00445581  0.75653782  0.37849845     0.12800
C1492       C  0.00051515  0.73813894  0.42900903     0.62300
F1493       F  0.05334070  0.85553023  0.41224303    -0.22800
F1494       F  0.02165543  0.85510405  0.38177823    -0.20100
F1495       F  0.06184162  0.83746297  0.37211830    -0.19800
F1496       F  0.98123825  0.74294579  0.44848049    -0.19900
F1497       F  0.01998066  0.72200769  0.43895754    -0.20200
F1498       F  0.98851787  0.72451490  0.40841596    -0.22900
C1499       C  0.02920138  0.76240830  0.61723537    -0.05700
C1500       C  0.01059826  0.77477689  0.60121169     0.00200
C1501       C  0.98983404  0.78992574  0.61331431    -0.08400
C1502       C  0.98950390  0.79360174  0.64101663    -0.05700
C1503       C  0.00883122  0.78232134  0.65680190     0.00200
C1504       C  0.02867058  0.76595003  0.64504554    -0.08300
C1505       C  0.04906637  0.75237423  0.66190679     0.62100
H1506       H  0.04448698  0.75044082  0.60780887     0.12800
H1507       H  0.97399712  0.80526444  0.65068063     0.12800
C1508       C  0.96748072  0.80131489  0.59723245     0.62300
F1509       F  0.06691055  0.73765455  0.64658061    -0.22800
F1510       F  0.03634615  0.73542462  0.67956861    -0.20100
F1511       F  0.06324885  0.77120743  0.67599228    -0.19800
F1512       F  0.95680133  0.78163035  0.58126244    -0.19900
F1513       F  0.97698187  0.82179340  0.58158624    -0.20200
F1514       F  0.94718999  0.81127086  0.61340313    -0.22900
C1515       C  0.39212800  0.64559539  0.48431646    -0.05700
C1516       C  0.39577224  0.64536199  0.45651490     0.00200
C1517       C  0.38179993  0.66440498  0.44141323    -0.08400
C1518       C  0.36444221  0.68216164  0.45460317    -0.05700
C1519       C  0.36079456  0.68225225  0.48219824     0.00200
C1520       C  0.37521595  0.66409246  0.49749594    -0.08300
C1521       C  0.37270318  0.66439763  0.52756528     0.62100
H1522       H  0.40147889  0.63028127  0.49560475     0.12800
H1523       H  0.35330176  0.69616221  0.44306776     0.12800
C1524       C  0.38332657  0.66667368  0.41133506     0.62300
F1525       F  0.38914059  0.64591213  0.53887100    -0.22800
F1526       F  0.34677642  0.65873043  0.53533815    -0.20100
F1527       F  0.37965568  0.68924041  0.53718027    -0.19800
F1528       F  0.35951604  0.65813319  0.40090180    -0.19900
F1529       F  0.40361574  0.65222552  0.39968630    -0.20200
F1530       F  0.38743519  0.69292827  0.40449452    -0.22900
C1531       C  0.11757099  0.77518995  0.50327267    -0.05700
C1532       C  0.10143678  0.77384098  0.52628219     0.00200
C1533       C  0.11269947  0.76697723  0.55074555    -0.08400
C1534       C  0.14005286  0.76175979  0.55145847    -0.05700
C1535       C  0.15612346  0.76222131  0.52835102     0.00200
C1536       C  0.14493966  0.76943756  0.50384838    -0.08300
C1537       C  0.16179541  0.77132496  0.47856247     0.62100
H1538       H  0.10834651  0.77995723  0.48468337     0.12800
H1539       H  0.14909205  0.75672266  0.57007072     0.12800
C1540       C  0.09556603  0.76426945  0.57572887     0.62300
F1541       F  0.14743663  0.78089683  0.45759068    -0.22800
F1542       F  0.17114098  0.74647471  0.47145458    -0.20100
F1543       F  0.18308091  0.78830095  0.48253625    -0.19800
F1544       F  0.07805569  0.74331341  0.57247810    -0.19900
F1545       F  0.08143645  0.78738091  0.58033513    -0.20200
F1546       F  0.11054831  0.75941027  0.59788531    -0.22900
C1547       C  0.26106141  0.90029106  0.51373730    -0.05700
C1548       C  0.28661512  0.89028708  0.51794354     0.00200
C1549       C  0.30793037  0.90818510  0.52167336    -0.08400
C1550       C  0.30285136  0.93558678  0.52105511    -0.05700
C1551       C  0.27714501  0.94596825  0.51737768     0.00200
C1552       C  0.25579386  0.92778460  0.51333367    -0.08300
C1553       C  0.22753311  0.93687141  0.50885251     0.62100
H1554       H  0.24500339  0.88613345  0.51124618     0.12800
H1555       H  0.31927175  0.94916638  0.52401520     0.12800
C1556       C  0.33571628  0.89849361  0.52754645     0.62300
F1557       F  0.21036088  0.91573517  0.50464632    -0.22800
F1558       F  0.22695774  0.95283327  0.48667906    -0.20100
F1559       F  0.21815628  0.95076635  0.53093944    -0.19800
F1560       F  0.34607643  0.88496258  0.50571257    -0.19900
F1561       F  0.33477784  0.88181709  0.54921862    -0.20200
F1562       F  0.35290704  0.91922158  0.53331733    -0.22900
C1563       C  0.68156242  0.54158921  0.65921925    -0.05700
C1564       C  0.67289137  0.54155591  0.68608906     0.00200
C1565       C  0.64600481  0.54920262  0.69162773    -0.08400
C1566       C  0.63087187  0.55957322  0.67085365    -0.05700
C1567       C  0.64138255  0.56381288  0.64503529     0.00200
C1568       C  0.66589852  0.55115590  0.63854727    -0.08300
C1569       C  0.67579465  0.54517581  0.61046526     0.62100
H1570       H  0.70073027  0.53324977  0.65386451     0.12800
H1571       H  0.61045199  0.56504246  0.67488194     0.12800
C1572       C  0.63267672  0.54699046  0.71889833     0.62300
F1573       F  0.68288008  0.51871516  0.60846019    -0.22800
F1574       F  0.69789126  0.56063378  0.60453711    -0.20100
F1575       F  0.65669680  0.54930559  0.59186956    -0.19800
F1576       F  0.64695347  0.56122945  0.73744891    -0.19900
F1577       F  0.63069404  0.52055442  0.72578249    -0.20200
F1578       F  0.60711849  0.55704707  0.71950182    -0.22900
C1579       C  0.89719287  0.48654754  0.75766338    -0.05700
C1580       C  0.88069802  0.50889915  0.75824603     0.00200
C1581       C  0.89128371  0.53395975  0.76589893    -0.08400
C1582       C  0.91850058  0.53578410  0.77177258    -0.05700
C1583       C  0.93488049  0.51341984  0.77072823     0.00200
C1584       C  0.92421460  0.48838386  0.76372573    -0.08300
C1585       C  0.94144118  0.46374541  0.76278279     0.62100
H1586       H  0.88861647  0.46747819  0.75242255     0.12800
H1587       H  0.92738438  0.55479780  0.77669153     0.12800
C1588       C  0.87400240  0.55845593  0.76863882     0.62300
F1589       F  0.92692064  0.44112659  0.75678030    -0.22800
F1590       F  0.95283747  0.46025432  0.78725286    -0.20100
F1591       F  0.96129194  0.46649639  0.74356826    -0.19800
F1592       F  0.85241749  0.55327121  0.78533323    -0.19900
F1593       F  0.86517986  0.56576162  0.74399605    -0.20200
F1594       F  0.88780288  0.57980733  0.77919710    -0.22900
C1595       C  0.74445015  0.47757060  0.90639670    -0.05700
C1596       C  0.75378943  0.49674570  0.88850542     0.00200
C1597       C  0.76872650  0.51869170  0.89793443    -0.08400
C1598       C  0.77266471  0.52141620  0.92548008    -0.05700
C1599       C  0.76242486  0.50273641  0.94351862     0.00200
C1600       C  0.74860901  0.48011135  0.93387093    -0.08300
C1601       C  0.73873854  0.45850571  0.95245605     0.62100
H1602       H  0.73377582  0.46055315  0.89861476     0.12800
H1603       H  0.78340837  0.53840486  0.93321953     0.12800
C1604       C  0.78074701  0.53883180  0.87888572     0.62300
F1605       F  0.72967043  0.43643856  0.93867612    -0.22800
F1606       F  0.71800009  0.46806865  0.96816173    -0.20100
F1607       F  0.75917627  0.45049045  0.96842423    -0.19800
F1608       F  0.76083981  0.55082994  0.86492526    -0.19900
F1609       F  0.79803794  0.52625095  0.86119124    -0.20200
F1610       F  0.79480612  0.55845183  0.89207654    -0.22900
C1611       C  0.79910791  0.60768154  0.00166434    -0.05700
C1612       C  0.77345389  0.59853866  0.00924903     0.00200
C1613       C  0.75249622  0.61728767  0.01160887    -0.08400
C1614       C  0.75846203  0.64432289  0.00732570    -0.05700
C1615       C  0.78422795  0.65318517  0.00038297     0.00200
C1616       C  0.80483804  0.63453022  0.99694386    -0.08300
C1617       C  0.83262395  0.64261408  0.98751593     0.62100
H1618       H  0.81507174  0.59352623  0.99932209     0.12800
H1619       H  0.74287891  0.65896881  0.00931605     0.12800
C1620       C  0.72399768  0.60927551  0.01838913     0.62300
F1621       F  0.84814375  0.62083093  0.98093696    -0.22800
F1622       F  0.84518984  0.65658680  0.00741897    -0.20100
F1623       F  0.83122091  0.65823250  0.96514826    -0.19800
F1624       F  0.72279626  0.59706399  0.04282317    -0.19900
F1625       F  0.71461755  0.59212583  0.99906835    -0.20200
F1626       F  0.70717355  0.63090392  0.01971680    -0.22900
C1627       C  0.75667606  0.39173591  0.04406085    -0.05700
C1628       C  0.78267708  0.38298738  0.04846499     0.00200
C1629       C  0.80337253  0.40181597  0.05088861    -0.08400
C1630       C  0.79774280  0.42860245  0.04641432    -0.05700
C1631       C  0.77202834  0.43750597  0.04038097     0.00200
C1632       C  0.75076118  0.41879088  0.04048180    -0.08300
C1633       C  0.72204349  0.42692098  0.03712858     0.62100
H1634       H  0.74093652  0.37700869  0.04334320     0.12800
H1635       H  0.81380883  0.44290350  0.04764818     0.12800
C1636       C  0.83106768  0.39393589  0.05919079     0.62300
F1637       F  0.70483589  0.40537958  0.03804125    -0.22800
F1638       F  0.71918250  0.43900618  0.01288556    -0.20100
F1639       F  0.71454950  0.44425358  0.05739450    -0.19800
F1640       F  0.84338007  0.37926396  0.03919941    -0.19900
F1641       F  0.82939346  0.37902762  0.08210731    -0.20200
F1642       F  0.84694792  0.41585092  0.06435725    -0.22900
C1643       C  0.60826834  0.78564086  0.99368864    -0.05700
C1644       C  0.59849620  0.76742059  0.01252794     0.00200
C1645       C  0.61652313  0.75421307  0.02904753    -0.08400
C1646       C  0.64392597  0.75997022  0.02610667     0.08300
C1647       C  0.65348555  0.77821484  0.00721926     0.00200
C1648       C  0.63555211  0.79097598  0.99046953    -0.08300
C1649       C  0.64537920  0.80986310  0.96904743     0.62100
H1650       H  0.59422422  0.79555762  0.98122207     0.12800
H1651       H  0.65819403  0.75000730  0.03827448     0.12800
C1652       C  0.60688199  0.73472152  0.04999496     0.62300
F1653       F  0.62463327  0.82076265  0.95531295    -0.22800
F1654       F  0.66156403  0.79639753  0.95097066    -0.20100
F1655       F  0.65970254  0.83035759  0.98045623    -0.19800
F1656       F  0.59493646  0.71312342  0.03788711    -0.19900
F1657       F  0.58872219  0.74693082  0.06708586    -0.20200
F1658       F  0.62755952  0.72544175  0.06495711    -0.22900
C1659       C  0.38955919  0.75683173  0.01342552    -0.05700
C1660       C  0.38017080  0.77441916  0.03326843     0.00200
C1661       C  0.39827899  0.78763489  0.04990991    -0.08400
C1662       C  0.42554786  0.78304770  0.04596216    -0.05700
C1663       C  0.43514709  0.76536272  0.02628736     0.00200
C1664       C  0.41698881  0.75202610  0.00957013    -0.08300
C1665       C  0.42652314  0.73349987  0.98742925     0.62100
H1666       H  0.37516932  0.74669972  0.00117858     0.12800
H1667       H  0.43973099  0.79320158  0.05844038     0.12800
C1668       C  0.38867068  0.80641742  0.07180531     0.62300
F1669       F  0.40569088  0.72412863  0.97237618    -0.22800
F1670       F  0.43907218  0.71189402  0.99812942    -0.20100
F1671       F  0.44414679  0.74676696  0.97067522    -0.19800
F1672       F  0.37293568  0.79272027  0.08996611    -0.19900
F1673       F  0.37395433  0.82653116  0.06096758    -0.20200
F1674       F  0.40957261  0.81786050  0.08531252    -0.22900
C1675       C  0.67341287  0.47492053  0.38244780    -0.05700
C1676       C  0.67039706  0.46252314  0.35752783     0.00200
C1677       C  0.64883519  0.44461339  0.35391932    -0.08400
C1678       C  0.63040908  0.44084475  0.37505238    -0.05700
C1679       C  0.63313010  0.45366827  0.39971710     0.00200
C1680       C  0.65534078  0.47060393  0.40381920    -0.08300
C1681       C  0.66060755  0.48354756  0.43065571     0.62100
H1682       H  0.69016854  0.48822032  0.38504008     0.12800
H1683       H  0.61371201  0.42741950  0.37260478     0.12800
C1684       C  0.64592384  0.42830128  0.32858477     0.62300
F1685       F  0.68588894  0.49449007  0.43149012    -0.22800
F1686       F  0.65849113  0.46505855  0.45069912    -0.20100
F1687       F  0.64257641  0.50363483  0.43559457    -0.19800
F1688       F  0.66971546  0.41600004  0.32205430    -0.19900
F1689       F  0.63863939  0.44442143  0.30801334    -0.20200
F1690       F  0.62664979  0.40872095  0.33140175    -0.22900
C1691       C  0.77384843  0.50396650  0.11841899    -0.05700
C1692       C  0.77100074  0.52784334  0.10481351     0.00200
C1693       C  0.76381814  0.55115555  0.11897374    -0.08400
C1694       C  0.75814244  0.54944854  0.14638766    -0.05700
C1695       C  0.75913366  0.52516970  0.15972629     0.00200
C1696       C  0.76820512  0.50218489  0.14585978    -0.08300
C1697       C  0.77237534  0.47604212  0.15983828     0.62100
H1698       H  0.77939409  0.48638270  0.10707629     0.12800
H1699       H  0.75215963  0.56699804  0.15754528     0.12800
C1700       C  0.76195290  0.57755066  0.10503552     0.62300
F1701       F  0.78481348  0.45758393  0.14329483    -0.22800
F1702       F  0.74817915  0.46550224  0.16798545    -0.20100
F1703       F  0.78817305  0.48002063  0.18168919    -0.19800
F1704       F  0.74145981  0.57658650  0.08727721    -0.19900
F1705       F  0.78556694  0.58282186  0.09143879    -0.20200
F1706       F  0.75713585  0.59823850  0.12278370    -0.22900
C1707       C  0.88616387  0.51478642  0.25385349    -0.05700
C1708       C  0.87738755  0.50898192  0.27992127     0.00200
C1709       C  0.89640388  0.50432664  0.29958353    -0.08400
C1710       C  0.92351871  0.50562943  0.29233072    -0.05700
C1711       C  0.93252170  0.51270902  0.26657633     0.00200
C1712       C  0.91337331  0.51710350  0.24678002    -0.08300
C1713       C  0.92118812  0.52518427  0.21865360     0.62100
H1714       H  0.87129123  0.51826127  0.23908389     0.12800
H1715       H  0.93806036  0.50174204  0.30729596     0.12800
C1716       C  0.88843334  0.49965700  0.32849354     0.62300
F1717       F  0.89922550  0.52972731  0.20327476    -0.22800
F1718       F  0.93584861  0.50522369  0.20641172    -0.20100
F1719       F  0.93604000  0.54837485  0.21930851    -0.19800
F1720       F  0.87573336  0.47542631  0.33096650    -0.19900
F1721       F  0.87168531  0.51963185  0.33751161    -0.20200
F1722       F  0.91022259  0.49946105  0.34481248    -0.22900
C1723       C  0.49292969  0.65439900  0.36404654    -0.05700
C1724       C  0.48499484  0.68083042  0.36844762     0.00200
C1725       C  0.46870968  0.68666243  0.39135316    -0.08400
C1726       C  0.45976326  0.66552386  0.40761365    -0.05700
C1727       C  0.46579071  0.63896589  0.40156348     0.00200
C1728       C  0.48416923  0.63351829  0.38047887    -0.08300
C1729       C  0.49487724  0.60601598  0.37427010     0.62100
H1730       H  0.50604353  0.64983638  0.34725333     0.12800
H1731       H  0.44630001  0.66945883  0.42423936     0.12800
C1732       C  0.45930480  0.71455369  0.39820075     0.62300
F1733       F  0.52224995  0.60730747  0.37117221    -0.22800
F1734       F  0.48420997  0.59676252  0.35081413    -0.20100
F1735       F  0.48916890  0.58807911  0.39424841    -0.19800
F1736       F  0.44864866  0.72628131  0.37614742    -0.19900
F1737       F  0.48036168  0.72955351  0.40728061    -0.20200
F1738       F  0.43983734  0.71460759  0.41809186    -0.22900
C1739       C  0.52091515  0.77597274  0.14765265    -0.05700
C1740       C  0.52432319  0.75004239  0.15705550     0.00200
C1741       C  0.52652139  0.72885652  0.13861579    -0.08400
C1742       C  0.52473136  0.73429753  0.11138958    -0.05700
C1743       C  0.52104415  0.76018168  0.10157918     0.00200
C1744       C  0.51911499  0.78155668  0.12024375    -0.08300
C1745       C  0.51519922  0.81006490  0.11172259     0.62100
H1746       H  0.51979466  0.79196531  0.16216630     0.12800
H1747       H  0.52646515  0.71789859  0.09745368     0.12800
C1748       C  0.53175925  0.70066629  0.14747181     0.62300
F1749       F  0.51311251  0.82729527  0.13327964    -0.22800
F1750       F  0.49207603  0.81200263  0.09752831    -0.20100
F1751       F  0.53666427  0.81823880  0.09615289    -0.19800
F1752       F  0.51006408  0.69118652  0.16182623    -0.19900
F1753       F  0.55400526  0.70022005  0.16312171    -0.20200
F1754       F  0.53620821  0.68358776  0.12612751    -0.22900
C1755       C  0.55686345  0.89394399  0.27347682    -0.05700
C1756       C  0.53295219  0.87985964  0.27720347     0.00200
C1757       C  0.50843286  0.89272202  0.27279812    -0.08400
C1758       C  0.50888616  0.91974374  0.26571463    -0.05700
C1759       C  0.53287229  0.93382884  0.26267415     0.00200
C1760       C  0.55722090  0.92084796  0.26662398    -0.08300
C1761       C  0.58338797  0.93577810  0.26451622     0.62100
H1762       H  0.57540533  0.88372291  0.27652858     0.12800
H1763       H  0.49045752  0.93035690  0.26328828     0.12800
C1764       C  0.48201270  0.87810048  0.27501070     0.62300
F1765       F  0.60497053  0.91923980  0.26742083    -0.22800
F1766       F  0.58415307  0.95503887  0.28425188    -0.20100
F1767       F  0.58571211  0.94763716  0.23989986    -0.19800
F1768       F  0.47667420  0.87157607  0.30118404    -0.19900
F1769       F  0.48281694  0.85523381  0.25957780    -0.20200
F1770       F  0.46122002  0.89344760  0.26642520    -0.22900
C1771       C  0.58307090  0.68077449  0.67425627    -0.05700
C1772       C  0.55543430  0.68203434  0.67278031     0.00200
C1773       C  0.54214083  0.66590922  0.65402279    -0.08400
C1774       C  0.55716732  0.64828513  0.63771249    -0.05700
C1775       C  0.58481939  0.64602602  0.64015426     0.00200
C1776       C  0.59816937  0.66330682  0.65822112    -0.08300
C1777       C  0.62804302  0.66420145  0.66223251     0.62100
H1778       H  0.59302766  0.69340997  0.68856925     0.12800
H1779       H  0.54721199  0.63491095  0.62413170     0.12800
C1780       C  0.51214089  0.66650818  0.65228539     0.62300
F1781       F  0.63698009  0.69014654  0.66029281    -0.22800
F1782       F  0.64240404  0.64936004  0.64389054    -0.20100
F1783       F  0.63340312  0.65511161  0.68738062    -0.19800
F1784       F  0.50396493  0.69200833  0.64696161    -0.19900
F1785       F  0.50082487  0.65849856  0.67621112    -0.20200
F1786       F  0.50301078  0.64982359  0.63239481    -0.22900
C1787       C  0.51113512  0.89097995  0.78566172    -0.05700
C1788       C  0.50721793  0.88243677  0.75931888     0.00200
C1789       C  0.50448575  0.90147046  0.73921877    -0.08400
C1790       C  0.50733807  0.92838766  0.74597081    -0.05700
C1791       C  0.51200832  0.93728022  0.77221012     0.00200
C1792       C  0.51316042  0.91810957  0.79267617    -0.08300
C1793       C  0.51609624  0.92580673  0.82171839     0.62100
H1794       H  0.51239137  0.87602291  0.80086668     0.12800
H1795       H  0.50570713  0.94280176  0.73032935     0.12800
C1796       C  0.49762125  0.89370548  0.71088448     0.62300
F1797       F  0.51658913  0.90384720  0.83801041    -0.22800
F1798       F  0.49482369  0.94131058  0.82997911    -0.20100
F1799       F  0.53956094  0.93969480  0.82503797    -0.19800
F1800       F  0.47632753  0.87619355  0.71096348    -0.19900
F1801       F  0.51931668  0.88197656  0.69839109    -0.20200
F1802       F  0.49060678  0.91548005  0.69608359    -0.22900
C1803       C  0.51569481  0.77399014  0.89095469    -0.05700
C1804       C  0.50731495  0.74910606  0.88131633     0.00200
C1805       C  0.50103363  0.72873824  0.89947222    -0.08400
C1806       C  0.50336492  0.73403423  0.92682314    -0.05700
C1807       C  0.51182164  0.75893757  0.93679951     0.00200
C1808       C  0.51832333  0.77931966  0.91839087    -0.08300
C1809       C  0.52825294  0.80643027  0.92728075     0.62100
H1810       H  0.52005028  0.78938759  0.87661731     0.12800
H1811       H  0.49824633  0.71849549  0.94073981     0.12800
C1812       C  0.49106058  0.70178514  0.89006878     0.62300
F1813       F  0.53553846  0.82221367  0.90593194    -0.22800
F1814       F  0.55032797  0.80362353  0.94289205    -0.20100
F1815       F  0.50839703  0.81942308  0.94158996    -0.19800
F1816       F  0.51077977  0.68916071  0.87527989    -0.19900
F1817       F  0.46894677  0.70489788  0.87457891    -0.20200
F1818       F  0.48396077  0.68551277  0.91109312    -0.22900
C1819       C  0.68527213  0.66107271  0.55738305    -0.05700
C1820       C  0.67867876  0.68668340  0.56662132     0.00200
C1821       C  0.65470924  0.68973267  0.58196731    -0.08400
C1822       C  0.63905810  0.66697025  0.58787064    -0.05700
C1823       C  0.64670735  0.64117136  0.58006323     0.00200
C1824       C  0.66990278  0.63841357  0.56359108    -0.08300
C1825       C  0.67954750  0.61251035  0.55131934     0.62100
H1826       H  0.70298070  0.65853046  0.54497692     0.12800
H1827       H  0.62112790  0.66912003  0.59991247     0.12800
C1828       C  0.64584409  0.71640147  0.59323085     0.62300
F1829       F  0.68167029  0.61522727  0.52400639    -0.22800
F1830       F  0.66283146  0.59141916  0.55641170    -0.20100
F1831       F  0.70433958  0.60667116  0.56094779    -0.19800
F1832       F  0.63686703  0.73206316  0.57300465    -0.19900
F1833       F  0.66667620  0.72893131  0.60585307    -0.20200
F1834       F  0.62516968  0.71378775  0.61165655    -0.22900
C1835       C  0.89249967  0.78584937  0.51260667    -0.05700
C1836       C  0.88302396  0.75978801  0.50926873     0.00200
C1837       C  0.90123821  0.73885467  0.50589517    -0.08400
C1838       C  0.92845820  0.74444791  0.50813120    -0.05700
C1839       C  0.93831876  0.77042037  0.51261866     0.00200
C1840       C  0.91990162  0.79175148  0.51389738    -0.08300
C1841       C  0.92864759  0.82057179  0.51621704     0.62100
H1842       H  0.87805272  0.80164888  0.51422331     0.12800
H1843       H  0.94228458  0.72817149  0.50614788     0.12800
C1844       C  0.89204727  0.71094726  0.49873068     0.62300
F1845       F  0.90732894  0.83778885  0.51593323    -0.22800
F1846       F  0.94537470  0.82693538  0.49499962    -0.20100
F1847       F  0.94163769  0.82467399  0.53981772    -0.19800
F1848       F  0.87651857  0.71170423  0.47640063    -0.19900
F1849       F  0.87736812  0.70028764  0.51958221    -0.20200
F1850       F  0.91320776  0.69420894  0.49318198    -0.22900
C1851       C  0.75877994  0.90348436  0.48428336    -0.05700
C1852       C  0.76049704  0.88961423  0.50822634     0.00200
C1853       C  0.76972591  0.90307221  0.53119697    -0.08400
C1854       C  0.77490382  0.93057221  0.52981332    -0.05700
C1855       C  0.77178284  0.94459163  0.50619086     0.00200
C1856       C  0.76427574  0.93084385  0.48287791    -0.08300
C1857       C  0.76195969  0.94518899  0.45673101     0.62100
H1858       H  0.75267914  0.89270760  0.46668055     0.12800
H1859       H  0.78087209  0.94150911  0.54736689     0.12800
C1860       C  0.77505223  0.88842531  0.55671254     0.62300
F1861       F  0.75711741  0.92785417  0.43584202    -0.22800
F1862       F  0.78533845  0.95878687  0.45100136    -0.20100
F1863       F  0.74122730  0.96293640  0.45863696    -0.19800
F1864       F  0.79175834  0.86724232  0.55138281    -0.19900
F1865       F  0.75145583  0.87921469  0.56781947    -0.20200
F1866       F  0.78711903  0.90467057  0.57530489    -0.22900
C1867       C  0.06608390  0.88644768  0.85096495    -0.05700
C1868       C  0.04828019  0.86674350  0.85993369     0.00200
C1869       C  0.04146825  0.86597045  0.88737143    -0.08400
C1870       C  0.05614934  0.88156642  0.90512637    -0.05700
C1871       C  0.07595376  0.89959973  0.89657658     0.00200
C1872       C  0.07976560  0.90334425  0.86869607    -0.08300
C1873       C  0.09908465  0.92361238  0.85718876     0.62100
H1874       H  0.07044862  0.88745603  0.82984609     0.12800
H1875       H  0.05246171  0.87900161  0.92620718     0.12800
C1876       C  0.01899134  0.84926461  0.89906120     0.62300
F1877       F  0.09961650  0.92325238  0.82965603    -0.22800
F1878       F  0.12431229  0.91817576  0.86531537    -0.20100
F1879       F  0.09191453  0.94884768  0.86527385    -0.19800
F1880       F  0.02944452  0.82764914  0.91180388    -0.19900
F1881       F  0.00142383  0.84056428  0.88007884    -0.20200
F1882       F  0.00456721  0.86425636  0.91745831    -0.22900
C1883       C  0.14769555  0.86240619  0.95809207    -0.05700
C1884       C  0.13822329  0.88469350  0.97296747     0.00200
C1885       C  0.14933257  0.88881122  0.99876009    -0.08400
C1886       C  0.16683191  0.86956878  0.00879249    -0.05700
C1887       C  0.17447470  0.84704021  0.99411819     0.00200
C1888       C  0.16492057  0.84338804  0.96825443    -0.08300
C1889       C  0.17389418  0.82006442  0.95087339     0.62100
H1890       H  0.14269214  0.86032033  0.93746337     0.12800
H1891       H  0.17492486  0.87196296  0.02844315     0.12800
C1892       C  0.14361410  0.91296195  0.01626606     0.62300
F1893       F  0.16362883  0.82105111  0.92560371    -0.22800
F1894       F  0.16546504  0.79652146  0.96219514    -0.20100
F1895       F  0.20132568  0.82008427  0.94834842    -0.19800
F1896       F  0.11851530  0.91060154  0.02772742    -0.19900
F1897       F  0.14578339  0.93605519  0.00180000    -0.20200
F1898       F  0.16141232  0.91523031  0.03678364    -0.22900
C1899       C  0.14320646  0.98083840  0.89851419    -0.05700
C1900       C  0.14887259  0.95418848  0.90400565     0.00200
C1901       C  0.17038506  0.94156130  0.88969628    -0.08400
C1902       C  0.18541263  0.95649773  0.87122647    -0.05700
C1903       C  0.17960175  0.98291385  0.86579756     0.00200
C1904       C  0.15843392  0.99552828  0.87977968    -0.08300
C1905       C  0.15267341  0.02460957  0.87545833     0.62100
H1906       H  0.12697376  0.99025558  0.90939664     0.12800
H1907       H  0.20211419  0.94748462  0.86066211     0.12800
C1908       C  0.17821840  0.91251116  0.89275429     0.62300
F1909       F  0.13238101  0.03368103  0.89215243    -0.22800
F1910       F  0.14528520  0.02836628  0.84948187    -0.20100
F1911       F  0.17522244  0.03956309  0.88039221    -0.19800
F1912       F  0.19063181  0.90291683  0.86979103    -0.19900
F1913       F  0.15647854  0.89625519  0.89756063    -0.20200
F1914       F  0.19589256  0.91028650  0.91323420    -0.22900
C1915       C  0.07747132  0.98981759  0.96158019    -0.05700
C1916       C  0.07120672  0.96284222  0.96377829     0.00200
C1917       C  0.04662620  0.95603897  0.97612282    -0.08400
C1918       C  0.03072442  0.97620388  0.98764462    -0.05700
C1919       C  0.03843096  0.00348466  0.98977127     0.00200
C1920       C  0.06146183  0.01044096  0.97307654    -0.08300
C1921       C  0.07043954  0.03866439  0.96625272     0.62100
H1922       H  0.09594543  0.99456594  0.95121214     0.12800
H1923       H  0.01151435  0.96965235  0.99497215     0.12800
C1924       C  0.03558958  0.92793133  0.97799315     0.62300
F1925       F  0.08966117  0.03888189  0.94609787    -0.22800
F1926       F  0.08167716  0.05096751  0.98775477    -0.20100
F1927       F  0.04973878  0.05345356  0.95711046    -0.19800
F1928       F  0.03406895  0.92066831  0.00442619    -0.19900
F1929       F  0.05061068  0.90940846  0.96426338    -0.20200
F1930       F  0.01029970  0.92710984  0.96774832    -0.22900
C1931       C  0.89838862  0.88843144  0.03625723    -0.05700
C1932       C  0.89667693  0.89424574  0.06384810     0.00200
C1933       C  0.87584946  0.88120265  0.07910298    -0.08400
C1934       C  0.85751876  0.86486983  0.06584680    -0.05700
C1935       C  0.85980663  0.85904738  0.03879061     0.00200
C1936       C  0.88041240  0.87101284  0.02356101    -0.08300
C1937       C  0.88291346  0.86579143  0.99385398     0.62100
H1938       H  0.91425352  0.89687867  0.02437380     0.12800
H1939       H  0.84136380  0.85563178  0.07709947     0.12800
C1940       C  0.87037459  0.88345338  0.10910536     0.62300
F1941       F  0.90296217  0.88085121  0.98208121    -0.22800
F1942       F  0.85927935  0.87200956  0.98191780    -0.20100
F1943       F  0.88851959  0.83932455  0.98915590    -0.19800
F1944       F  0.89063183  0.89410525  0.12374179    -0.19900
F1945       F  0.86541480  0.85844131  0.11930661    -0.20200
F1946       F  0.84795559  0.89876226  0.11345348    -0.22900
C1947       C  0.91864677  0.97135755  0.15328244    -0.05700
C1948       C  0.90929434  0.97122669  0.12727482     0.00200
C1949       C  0.88712408  0.98727133  0.12172184    -0.08400
C1950       C  0.87194385  0.99794328  0.14298998    -0.05700
C1951       C  0.87885362  0.99472149  0.16974873     0.00200
C1952       C  0.90398856  0.98280751  0.17480141    -0.08300
C1953       C  0.91566164  0.98148306  0.20229917     0.62100
H1954       H  0.93707791  0.96127839  0.15685016     0.12800
H1955       H  0.85430514  0.00904909  0.13838599     0.12800
C1956       C  0.87902603  0.99441226  0.09383572     0.62300
F1957       F  0.93939674  0.96770692  0.20224749    -0.22800
F1958       F  0.89822465  0.96867336  0.21955066    -0.20100
F1959       F  0.92101209  0.00690906  0.21134729    -0.19800
F1960       F  0.85479753  0.98270255  0.08839182    -0.19900
F1961       F  0.89749966  0.98667297  0.07464006    -0.20200
F1962       F  0.87650506  0.02166982  0.09218483    -0.22900
C1963       C  0.94478789  0.90425620  0.15792181    -0.05700
C1964       C  0.96130404  0.90154455  0.13514271     0.00200
C1965       C  0.98136203  0.88176319  0.13501954    -0.08400
C1966       C  0.98418010  0.86586431  0.15767581    -0.05700
C1967       C  0.96757383  0.86859780  0.18026809     0.00200
C1968       C  0.94755995  0.88824844  0.18054681    -0.08300
C1969       C  0.92794428  0.89104159  0.20375428     0.62100
H1970       H  0.92808378  0.91749494  0.15701795     0.12800
H1971       H  0.99937027  0.85074650  0.15785993     0.12800
C1972       C  0.00016520  0.87743252  0.11139678     0.62300
F1973       F  0.90833205  0.90936585  0.19876943    -0.22800
F1974       F  0.94109649  0.89942830  0.22615393    -0.20100
F1975       F  0.91569918  0.86688033  0.20869041    -0.19800
F1976       F  0.01708694  0.89895210  0.10936512    -0.19900
F1977       F  0.98632549  0.87434139  0.08814773    -0.20200
F1978       F  0.01558385  0.85502295  0.11425255    -0.22900
C1979       C  0.01195673  0.98705597  0.04317073    -0.05700
C1980       C  0.99950554  0.00485599  0.02529596     0.00200
C1981       C  0.97052634  0.00261414  0.02474072    -0.08400
C1982       C  0.95737263  0.98430358  0.04208368    -0.05700
C1983       C  0.97047791  0.96687574  0.05872537     0.00200
C1984       C  0.99839364  0.96796865  0.05878285    -0.08300
C1985       C  0.01404437  0.94766211  0.07370930     0.62100
H1986       H  0.03339208  0.98707544  0.04368939     0.12800
H1987       H  0.93603134  0.98201048  0.04179664     0.12800
C1988       C  0.95191276  0.01568351  0.00517651     0.62300
F1989       F  0.04120291  0.95031683  0.06938866    -0.22800
F1990       F  0.00663628  0.92258113  0.06518518    -0.20100
F1991       F  0.00894312  0.95042606  0.10066015    -0.19800
F1992       F  0.95500058  0.00364163  0.98057931    -0.19900
F1993       F  0.95572447  0.04260123  0.00373575    -0.20200
F1994       F  0.92533075  0.01256119  0.01234121    -0.22900
C1995       C  0.90498813  0.08478704  0.86688795    -0.05700
C1996       C  0.90062336  0.07625288  0.89305025     0.00200
C1997       C  0.88006267  0.05745840  0.89826240    -0.08400
C1998       C  0.86343924  0.04954609  0.87742528    -0.05700
C1999       C  0.86652674  0.05950391  0.85151896     0.00200
C2000       C  0.88806751  0.07728856  0.84603281    -0.08300
C2001       C  0.89266320  0.08977204  0.81893904     0.62100
H2002       H  0.92099447  0.09875653  0.86318977     0.12800
H2003       H  0.84742436  0.03561062  0.88165578     0.12800
C2004       C  0.87458181  0.04502439  0.92524017     0.62300
F2005       F  0.91058244  0.11070254  0.81996255    -0.22800
F2006       F  0.86910546  0.09958914  0.80949153    -0.20100
F2007       F  0.90300537  0.07111386  0.80136330    -0.19800
F2008       F  0.84935912  0.05194799  0.93419357    -0.19900
F2009       F  0.89252269  0.05260046  0.94430640    -0.20200
F2010       F  0.87575461  0.01770096  0.92261819    -0.22900
C2011       C  0.86062737  0.18035916  0.96613413    -0.05700
C2012       C  0.86076367  0.18096177  0.99376428     0.00200
C2013       C  0.87819057  0.16407701  0.00711175    -0.08400
C2014       C  0.89507138  0.14689977  0.99207159    -0.05700
C2015       C  0.89507381  0.14581030  0.96391165     0.00200
C2016       C  0.87683212  0.16314620  0.95075212    -0.08300
C2017       C  0.87243019  0.16570185  0.92086576     0.62100
H2018       H  0.84710422  0.19354761  0.95627245     0.12800
H2019       H  0.90817534  0.13424123  0.00268820     0.12800
C2020       C  0.87884827  0.16446740  0.03722257     0.62300
F2021       F  0.87927067  0.19117807  0.91319589    -0.22800
F2022       F  0.84572521  0.16168457  0.91598751    -0.20100
F2023       F  0.88628850  0.14846310  0.90455145    -0.19800
F2024       F  0.85400144  0.15789095  0.04756573    -0.19900
F2025       F  0.88576554  0.18960479  0.04606034    -0.20200
F2026       F  0.89704955  0.14665459  0.04679963    -0.22900
C2027       C  0.94545211  0.15041490  0.86850921    -0.05700
C2028       C  0.96106225  0.14038840  0.88885423     0.00200
C2029       C  0.98855514  0.14643128  0.88900639    -0.08400
C2030       C  0.99941151  0.16318704  0.86909942    -0.05700
C2031       C  0.98351402  0.17385662  0.84926405     0.00200
C2032       C  0.95622513  0.16696904  0.84858764    -0.08300
C2033       C  0.93841408  0.17785087  0.82736164     0.62100
H2034       H  0.92438688  0.14598288  0.86895190     0.12800
H2035       H  0.02022316  0.16878096  0.86936072     0.12800
C2036       C  0.00590819  0.13604245  0.91078664     0.62300
F2037       F  0.91233795  0.16938986  0.83069351    -0.22800
F2038       F  0.94744264  0.16939649  0.80256167    -0.20100
F2039       F  0.93868471  0.20528572  0.82833480    -0.19800
F2040       F  0.00497976  0.10862022  0.91076251    -0.19900
F2041       F  0.99683789  0.14551480  0.93522099    -0.20200
F2042       F  0.03217028  0.14384712  0.90730153    -0.22900
C2043       C  0.98775673  0.08746994  0.97771554    -0.05700
C2044       C  0.97259333  0.07623986  0.95738243     0.00200
C2045       C  0.97873187  0.04958525  0.94982696    -0.08400
C2046       C  0.99565360  0.03447747  0.96617718    -0.05700
C2047       C  0.00773674  0.04456142  0.98950334     0.00200
C2048       C  0.00741446  0.07339450  0.99147466    -0.08300
C2049       C  0.02742469  0.09214271  0.00450577     0.62100
H2050       H  0.98539368  0.10851520  0.98180852     0.12800
H2051       H  0.99863711  0.01380416  0.96123731     0.12800
C2052       C  0.96748681  0.03633404  0.92525550     0.62300
F2053       F  0.05089824  0.08075501  0.01107685    -0.22800
F2054       F  0.01599134  0.10403219  0.02680201    -0.20100
F2055       F  0.03438769  0.11203195  0.98678954    -0.19800
F2056       F  0.97932523  0.04716007  0.90280707    -0.19900
F2057       F  0.94033394  0.03954898  0.92470791    -0.20200
F2058       F  0.97239883  0.00933615  0.92442028    -0.22900
C2059       C  0.15857997  0.18235300  0.07167371    -0.05700
C2060       C  0.17904651  0.17360485  0.05442342     0.00200
C2061       C  0.17910584  0.14664898  0.04585260    -0.08400
C2062       C  0.15968023  0.12912202  0.05647967    -0.05700
C2063       C  0.14042499  0.13753030  0.07533478     0.00200
C2064       C  0.13903247  0.16492135  0.08197983    -0.08300
C2065       C  0.11637484  0.17615498  0.09876810     0.62100
H2066       H  0.15819071  0.20313755  0.07735483     0.12800
H2067       H  0.15971050  0.10843541  0.05049697     0.12800
C2068       C  0.19885644  0.13646500  0.02495205     0.62300
F2069       F  0.11536828  0.20355067  0.09739896    -0.22800
F2070       F  0.11956432  0.16951691  0.12500805    -0.20100
F2071       F  0.09249747  0.16624728  0.08974549    -0.19800
F2072       F  0.22394540  0.13536540  0.03541076    -0.19900
F2073       F  0.19927886  0.15304582  0.00320526    -0.20200
F2074       F  0.19227768  0.11120388  0.01613086    -0.22900
C2075       C  0.14071280  0.05313768  0.15810817    -0.05700
C2076       C  0.14877050  0.07018413  0.13747976     0.00200
C2077       C  0.17595994  0.07759428  0.13537270    -0.08400
C2078       C  0.19327714  0.07050593  0.15572417    -0.05700
C2079       C  0.18475349  0.05538792  0.17767720     0.00200
C2080       C  0.15822615  0.04540154  0.17819018    -0.08300
C2081       C  0.14798140  0.02669958  0.19957599     0.62100
H2082       H  0.12016988  0.04660543  0.15896803     0.12800
H2083       H  0.21370514  0.07738507  0.15481315     0.12800
C2084       C  0.18716756  0.09198374  0.11129641     0.62300
F2085       F  0.12579911  0.01275743  0.19128735    -0.22800
F2086       F  0.14091194  0.04110119  0.22211734    -0.20100
F2087       F  0.16713048  0.00829911  0.20568271    -0.19800
F2088       F  0.18113128  0.11861332  0.11314092    -0.19900
F2089       F  0.17672993  0.08116485  0.08840013    -0.20200
F2090       F  0.21454516  0.08965916  0.10927531    -0.22900
C2091       C  0.06229946  0.15033030  0.13891062    -0.05700
C2092       C  0.08175840  0.13226051  0.14668731     0.00200
C2093       C  0.09084184  0.13367826  0.17316750    -0.08400
C2094       C  0.08281764  0.15516913  0.18959507    -0.05700
C2095       C  0.06517253  0.17459908  0.18094277     0.00200
C2096       C  0.05359134  0.17133557  0.15563914    -0.08300
C2097       C  0.03143014  0.18916585  0.14655522     0.62100
H2098       H  0.05436754  0.14826562  0.11917323     0.12800
H2099       H  0.09048760  0.15702800  0.20947419     0.12800
C2100       C  0.10720260  0.11172008  0.18486851     0.62300
F2101       F  0.01939294  0.17908041  0.12409249    -0.22800
F2102       F  0.04148089  0.21397396  0.14049404    -0.20100
F2103       F  0.01207070  0.19146871  0.16639366    -0.19800
F2104       F  0.13306862  0.11307406  0.17532399    -0.19900
F2105       F  0.09611976  0.08740125  0.17837771    -0.20200
F2106       F  0.10775256  0.11352323  0.21232560    -0.22900
C2107       C  0.06480332  0.03018513  0.03442296    -0.05700
C2108       C  0.03751228  0.03647348  0.03213377     0.00200
C2109       C  0.02688317  0.05308601  0.05338311    -0.08400
C2110       C  0.04463125  0.06648167  0.07052450    -0.05700
C2111       C  0.07236997  0.06256783  0.07055343     0.00200
C2112       C  0.08255393  0.04350160  0.05165691    -0.08300
C2113       C  0.11168089  0.03514949  0.04952835     0.62100
H2114       H  0.07291402  0.01418159  0.02246829     0.12800
H2115       H  0.03608443  0.08101550  0.08419909     0.12800
C2116       C  0.99722550  0.05599173  0.06034953     0.62300
F2117       F  0.11644102  0.01587186  0.06812199    -0.22800
F2118       F  0.12896390  0.05615870  0.05304078    -0.20100
F2119       F  0.11776565  0.02446957  0.02466232    -0.19800
F2120       F  0.98753851  0.03279104  0.07131208    -0.19900
F2121       F  0.98280825  0.06223712  0.03860187    -0.20200
F2122       F  0.99230795  0.07592382  0.07894038    -0.22900
loop_ 
_geom_bond_atom_site_label_1 
_geom_bond_atom_site_label_2 
_geom_bond_distance 
_geom_bond_site_symmetry_2 
_ccdc_geom_bond_type 
C1            C2   1.550       .  S
C1            C7   1.545       .  S
C1            C5   1.562       .  S
C1         C2111   1.575       .  S
C2            H9   1.082       .  S
C2            C3   1.372       .  D
C3            C4   1.544       .  S
C3         C2076   1.503       .  S
C4            C8   1.540       .  S
C4            C6   1.541       .  S
C4           H10   1.105       .  S
C5           H11   1.088       .  S
C5            C6   1.368       .  D
C6         C2092   1.503       .  S
C7           H12   1.087       .  S
C7            C8   1.366       .  D
C8         C2063   1.500       .  S
C13          C14   1.530       .  S
C13          C19   1.532       .  S
C13          C17   1.560       .  S
C13        C2015   1.556       .  S
C14          H21   1.087       .  S
C14          C15   1.361       .  D
C15          C16   1.551       .  S
C15        C1996   1.493       .  S
C16          C20   1.545       .  S
C16          C18   1.562       .  S
C16          H22   1.101       .  S
C17          H23   1.082       .  S
C17          C18   1.388       .  D
C18        C2044   1.532       .  S
C19          H24   1.087       .  S
C19          C20   1.357       .  D
C20        C2028   1.491       .  S
C25          C26   1.525       .  S
C25          C31   1.552       .  S
C25          C29   1.537       .  S
C25        C1932   1.551       .  S
C26          H33   1.088       .  S
C26          C27   1.359       .  D
C27          C28   1.562       .  S
C27        C1964   1.500       .  S
C28          C32   1.562       .  S
C28          C30   1.547       .  S
C28          H34   1.108       .  S
C29          H35   1.085       .  S
C29          C30   1.365       .  D
C30        C1948   1.501       .  S
C31          H36   1.082       .  S
C31          C32   1.378       .  D
C32        C1983   1.517       .  S
C37          C38   1.527       .  S
C37          C43   1.551       .  S
C37          C41   1.544       .  S
C37        C1884   1.561       .  S
C38          H45   1.083       .  S
C38          C39   1.360       .  D
C39          C40   1.555       .  S
C39        C1900   1.502       .  S
C40          C44   1.545       .  S
C40          C42   1.560       .  S
C40          H46   1.105       .  S
C41          H47   1.077       .  S
C41          C42   1.374       .  D
C42        C1916   1.510       .  S
C43          H48   1.086       .  S
C43          C44   1.367       .  D
C44        C1871   1.507       .  S
C49        C1919   1.634   1_554  S
C49        C1980   1.621   1_455  S
C49        C2047   1.606   1_554  S
C49        C2108   1.604       .  S
N50          N51   1.321       .  A
N50          C54   1.348       .  A
N50         Cu58   2.093       .  S
N51          C52   1.341       .  A
N51         Cu57   2.047       .  S
C52          C53   1.377       .  A
C52          H55   1.082       .  S
C53          C54   1.389       .  A
C53        C1836   1.479       .  S
C54          H56   1.081       .  S
Cu57         N60   2.047       .  S
Cu58         N68   2.094       .  S
Cu59         N61   2.102       .  S
Cu59         N67   2.103       .  S
N60          N61   1.321       .  A
N60          C64   1.341       .  A
N61          C62   1.351       .  A
C62          C63   1.392       .  A
C62          H65   1.081       .  S
C63          C64   1.378       .  A
C63        C1852   1.484       .  S
C64          H66   1.082       .  S
N67          N68   1.322       .  A
N67          C71   1.350       .  A
N68          C69   1.347       .  A
C69          C70   1.394       .  A
C69          H72   1.082       .  S
C70          C71   1.396       .  A
C70        C1820   1.510       .  S
C71          H73   1.076       .  S
N74          N75   1.320       .  A
N74          C78   1.350       .  A
N74         Cu82   2.097       .  S
N75          C76   1.341       .  A
N75         Cu81   2.046       .  S
C76          C77   1.378       .  A
C76          H79   1.082       .  S
C77          C78   1.392       .  A
C77        C1804   1.484       .  S
C78          H80   1.081       .  S
Cu81         N84   2.045       .  S
Cu82         N92   2.099       .  S
Cu83         N85   2.090       .  S
Cu83         N91   2.091       .  S
N84          N85   1.321       .  A
N84          C88   1.340       .  A
N85          C86   1.348       .  A
C86          C87   1.391       .  A
C86          H89   1.080       .  S
C87          C88   1.378       .  A
C87        C1788   1.483       .  S
C88          H90   1.082       .  S
N91          N92   1.325       .  A
N91          C95   1.349       .  A
N92          C93   1.348       .  A
C93          C94   1.386       .  A
C93          H96   1.082       .  S
C94          C95   1.385       .  A
C94        C1772   1.483       .  S
C95          H97   1.082       .  S
N98          N99   1.321       .  A
N98         C102   1.352       .  A
N98        Cu106   2.109       .  S
N99         C100   1.341       .  A
N99        Cu105   2.044       .  S
C100        C101   1.378       .  A
C100        H103   1.082       .  S
C101        C102   1.394       .  A
C101       C1740   1.487       .  S
C102        H104   1.081       .  S
Cu105       N108   2.045       .  S
Cu106       N116   2.111       .  S
Cu107       N109   2.083       .  S
Cu107       N115   2.086       .  S
N108        N109   1.320       .  A
N108        C112   1.339       .  A
N109        C110   1.349       .  A
C110        C111   1.391       .  A
C110        H113   1.080       .  S
C111        C112   1.378       .  A
C111       C1756   1.481       .  S
C112        H114   1.082       .  S
N115        N116   1.323       .  A
N115        C119   1.347       .  A
N116        C117   1.349       .  A
C117        C118   1.395       .  A
C117        H120   1.082       .  S
C118        C119   1.390       .  A
C118       C1724   1.505       .  S
C119        H121   1.076       .  S
N122        N123   1.321       .  A
N122        C126   1.348       .  A
N122       Cu130   2.086       .  S
N123        C124   1.341       .  A
N123       Cu129   2.050       .  S
C124        C125   1.377       .  A
C124        H127   1.082       .  S
C125        C126   1.389       .  A
C125       C1695   1.479       .  S
C126        H128   1.081       .  S
Cu129       N132   2.049       .  S
Cu130       N140   2.087       .  S
Cu131       N133   2.091       .  S
Cu131       N139   2.091       .  S
N132        N133   1.320       .  A
N132        C136   1.340       .  A
N133        C134   1.349       .  A
C134        C135   1.393       .  A
C134        H137   1.079       .  S
C135        C136   1.381       .  A
C135       C1708   1.488       .  S
C136        H138   1.082       .  S
N139        N140   1.323       .  A
N139        C143   1.347       .  A
N140        C141   1.347       .  A
C141        C142   1.388       .  A
C141        H144   1.080       .  S
C142        C143   1.388       .  A
C142       C1676   1.491       .  S
C143        H145   1.082       .  S
O146       Cu154   2.053   1_556  S
O146        C156   1.284       .  A
O147       Cu154   2.056       .  S
O147        C157   1.283       .  A
O148       Cu154   1.978       .  S
O148        C158   1.273       .  A
O149       Cu154   1.977       .  S
O149        C159   1.273       .  A
O150       Cu155   2.038       .  S
O150        C159   1.281       .  A
O151       Cu155   2.039       .  S
O151        C158   1.282       .  A
O152       Cu155   1.976       .  S
O152        C157   1.274       .  A
O153       Cu155   1.978   1_556  S
O153        C156   1.273       .  A
Cu154      Cu155   2.363       .  S
C156       C1807   1.500       .  S
C157       C1743   1.506       .  S
C158       C1644   1.481       .  S
C159       C1663   1.479       .  S
O160       Cu168   1.994   1_556  S
O160        C170   1.274       .  A
O161       Cu168   1.985       .  S
O161        C171   1.273       .  A
O162       Cu168   2.044       .  S
O162        C172   1.282       .  A
O163       Cu168   2.047       .  S
O163        C173   1.282       .  A
O164       Cu169   1.969       .  S
O164        C173   1.274       .  A
O165       Cu169   1.971       .  S
O165        C172   1.274       .  A
O166       Cu169   2.033       .  S
O166        C171   1.280       .  A
O167       Cu169   2.037   1_556  S
O167        C170   1.281       .  A
Cu168      Cu169   2.364       .  S
C170       C1599   1.480       .  S
C171       C1692   1.471       .  S
C172       C1612   1.499       .  S
C173       C1631   1.498       .  S
N174        N175   1.319       .  A
N174        C178   1.348   1_556  A
N174       Cu182   2.086   1_556  S
N175        C176   1.340       .  A
N175       Cu181   2.043       .  S
C176        C177   1.379       .  A
C176        H179   1.082       .  S
C177        C178   1.391   1_556  A
C177       C1615   1.482   1_556  S
C178        H180   1.080       .  S
Cu181       N184   2.045       .  S
Cu182       N192   2.088       .  S
Cu183       N185   2.099       .  S
Cu183       N191   2.100       .  S
N184        N185   1.322   1_556  A
N184        C188   1.340       .  A
N185        C186   1.351       .  A
C186        C187   1.389       .  A
C186        H189   1.082       .  S
C187        C188   1.374   1_554  A
C187       C1647   1.475       .  S
C188        H190   1.082       .  S
N191        N192   1.324       .  A
N191        C195   1.348       .  A
N192        C193   1.348       .  A
C193        C194   1.385       .  A
C193        H196   1.082       .  S
C194        C195   1.387       .  A
C194       C1935   1.486       .  S
C195        H197   1.082       .  S
N198        N199   1.320       .  A
N198        C202   1.350       .  A
N198       Cu206   2.095       .  S
N199        C200   1.342       .  A
N199       Cu205   2.047       .  S
C200        C201   1.377       .  A
C200        H203   1.082       .  S
C201        C202   1.389       .  A
C201       C1596   1.478       .  S
C202        H204   1.082       .  S
Cu205       N208   2.047       .  S
Cu206       N216   2.097       .  S
Cu207       N209   2.087       .  S
Cu207       N215   2.089       .  S
N208        N209   1.321       .  A
N208        C212   1.338       .  A
N209        C210   1.349       .  A
C210        C211   1.390       .  A
C210        H213   1.080       .  S
C211        C212   1.377       .  A
C211       C1580   1.479       .  S
C212        H214   1.082       .  S
N215        N216   1.320       .  A
N215        C219   1.346       .  A
N216        C217   1.346       .  A
C217        C218   1.400       .  A
C217        H220   1.072       .  S
C218        C219   1.398       .  A
C218       C1564   1.519       .  S
C219        H221   1.081       .  S
N222        N223   1.320       .  A
N222        C226   1.351       .  A
N222       Cu230   2.100       .  S
N223        C224   1.340       .  A
N223       Cu229   2.046       .  S
C224        C225   1.378       .  A
C224        H227   1.082       .  S
C225        C226   1.394       .  A
C225       C1548   1.486       .  S
C226        H228   1.081       .  S
Cu229       N232   2.045       .  S
Cu230       N240   2.102       .  S
Cu231       N233   2.098       .  S
Cu231       N239   2.101       .  S
N232        N233   1.321       .  A
N232        C236   1.340       .  A
N233        C234   1.351       .  A
C234        C235   1.391       .  A
C234        H237   1.081       .  S
C235        C236   1.375       .  A
C235       C1535   1.479       .  S
C236        H238   1.082       .  S
N239        N240   1.325       .  A
N239        C243   1.351       .  A
N240        C241   1.348       .  A
C241        C242   1.386       .  A
C241        H244   1.082       .  S
C242        C243   1.388       .  A
C242       C1519   1.488       .  S
C243        H245   1.082       .  S
O246       Cu254   2.043       .  S
O246        C256   1.283       .  A
O247       Cu254   2.047       .  S
O247        C257   1.283       .  A
O248       Cu254   1.973   1_655  S
O248        C258   1.273       .  A
O249       Cu254   1.978       .  S
O249        C259   1.271       .  A
O250       Cu255   2.043       .  S
O250        C259   1.282       .  A
O251       Cu255   2.041   1_655  S
O251        C258   1.282       .  A
O252       Cu255   1.975       .  S
O252        C257   1.271       .  A
O253       Cu255   1.973       .  S
O253        C256   1.273       .  A
Cu254      Cu255   2.366       .  S
C256       C1484   1.492       .  S
C257       C1500   1.479       .  S
C258       C1839   1.500       .  S
C259       C1532   1.473       .  S
O260       Cu268   1.972       .  S
O260        C270   1.273       .  A
O261       Cu268   1.963       .  S
O261        C271   1.272       .  A
O262       Cu268   2.039   1_655  S
O262        C272   1.282       .  A
O263       Cu268   2.038       .  S
O263        C273   1.281       .  A
O264       Cu269   1.968       .  S
O264        C273   1.273       .  A
O265       Cu269   1.969   1_655  S
O265        C272   1.270       .  A
O266       Cu269   2.041       .  S
O266        C271   1.282       .  A
O267       Cu269   2.043       .  S
O267        C270   1.282       .  A
Cu268      Cu269   2.365       .  S
C270       C1452   1.499       .  S
C271       C1468   1.480       .  S
C272       C1583   1.467       .  S
C273       C1439   1.496       .  S
N274        N275   1.321   1_455  A
N274        C278   1.350       .  A
N274       Cu282   2.090       .  S
N275        C276   1.338       .  A
N275       Cu281   2.041       .  S
C276        C277   1.373   1_655  A
C276        H279   1.082       .  S
C277        C278   1.388       .  A
C277       C1471   1.470       .  S
C278        H280   1.082       .  S
Cu281       N284   2.043       .  S
Cu282       N292   2.093       .  S
Cu283       N285   2.086       .  S
Cu283       N291   2.088       .  S
N284        N285   1.321   1_655  A
N284        C288   1.340       .  A
N285        C286   1.349       .  A
C286        C287   1.387       .  A
C286        H289   1.082       .  S
C287        C288   1.374   1_455  A
C287       C1503   1.471       .  S
C288        H290   1.082       .  S
N291        N292   1.324       .  A
N291        C295   1.347       .  A
N292        C293   1.346       .  A
C293        C294   1.389       .  A
C293        H296   1.081       .  S
C294        C295   1.387       .  A
C294       C1868   1.492       .  S
C295        H297   1.082       .  S
N298        N299   1.320       .  A
N298        C302   1.347       .  A
N298       Cu306   2.079       .  S
N299        C300   1.341       .  A
N299       Cu305   2.050       .  S
C300        C301   1.380       .  A
C300        H303   1.082       .  S
C301        C302   1.389       .  A
C301       C1436   1.481       .  S
C302        H304   1.081       .  S
Cu305       N308   2.051       .  S
Cu306       N316   2.081       .  S
Cu307       N309   2.086       .  S
Cu307       N315   2.087       .  S
N308        N309   1.322       .  A
N308        C312   1.341       .  A
N309        C310   1.348       .  A
C310        C311   1.387       .  A
C310        H313   1.081       .  S
C311        C312   1.376       .  A
C311       C1420   1.476       .  S
C312        H314   1.082       .  S
N315        N316   1.321       .  A
N315        C319   1.345       .  A
N316        C317   1.345       .  A
C317        C318   1.391       .  A
C317        H320   1.075       .  S
C318        C319   1.392       .  A
C318       C1404   1.500       .  S
C319        H321   1.082       .  S
N322        N323   1.319       .  A
N322        C326   1.351       .  A
N322       Cu330   2.098       .  S
N323        C324   1.340       .  A
N323       Cu329   2.048       .  S
C324        C325   1.382       .  A
C324        H327   1.082       .  S
C325        C326   1.396       .  A
C325       C1372   1.493       .  S
C326        H328   1.078       .  S
Cu329       N332   2.044       .  S
Cu330       N340   2.100       .  S
Cu331       N333   2.108       .  S
Cu331       N339   2.110       .  S
N332        N333   1.321       .  A
N332        C336   1.341       .  A
N333        C334   1.353       .  A
C334        C335   1.392       .  A
C334        H337   1.082       .  S
C335        C336   1.375       .  A
C335       C1388   1.481       .  S
C336        H338   1.082       .  S
N339        N340   1.325       .  A
N339        C343   1.351       .  A
N340        C341   1.349       .  A
C341        C342   1.388       .  A
C341        H344   1.082       .  S
C342        C343   1.390       .  A
C342       C1356   1.498       .  S
C343        H345   1.080       .  S
O346       Cu354   2.037       .  S
O346        C356   1.281       .  A
O347       Cu354   2.039   1_565  S
O347        C357   1.281       .  A
O348       Cu354   1.974       .  S
O348        C358   1.274       .  A
O349       Cu354   1.967       .  S
O349        C359   1.273       .  A
O350       Cu355   2.052       .  S
O350        C359   1.283       .  A
O351       Cu355   2.048       .  S
O351        C358   1.282       .  A
O352       Cu355   1.994   1_565  S
O352        C357   1.274       .  A
O353       Cu355   1.990       .  S
O353        C356   1.273       .  A
Cu354      Cu355   2.365       .  S
C356       C1375   1.474       .  S
C357       C1855   1.477       .  S
C358       C1324   1.501       .  S
C359       C1340   1.499       .  S
O360       Cu368   1.963   1_565  S
O360        C370   1.272       .  A
O361       Cu368   1.959       .  S
O361        C371   1.272       .  A
O362       Cu368   2.032       .  S
O362        C372   1.281       .  A
O363       Cu368   2.033       .  S
O363        C373   1.281       .  A
O364       Cu369   1.982       .  S
O364        C373   1.272       .  A
O365       Cu369   1.987       .  S
O365        C372   1.273       .  A
O366       Cu369   2.055       .  S
O366        C371   1.283       .  A
O367       Cu369   2.053   1_565  S
O367        C370   1.283       .  A
Cu368      Cu369   2.365       .  S
C370       C1791   1.500       .  S
C371       C1276   1.501       .  S
C372       C1292   1.475       .  S
C373       C1311   1.470       .  S
N374        N375   1.322       .  A
N374        C378   1.351       .  A
N374       Cu382   2.100       .  S
N375        C376   1.340   1_545  A
N375       Cu381   2.046   1_545  S
C376        C377   1.374   1_565  A
C376        H379   1.082       .  S
C377        C378   1.389       .  A
C377       C1295   1.476       .  S
C378        H380   1.082       .  S
Cu381       N384   2.047   1_565  S
Cu382       N392   2.101       .  S
Cu383       N385   2.086       .  S
Cu383       N391   2.088       .  S
N384        N385   1.319       .  A
N384        C388   1.341   1_545  A
N385        C386   1.348       .  A
C386        C387   1.391       .  A
C386        H389   1.080       .  S
C387        C388   1.379   1_545  A
C387       C1343   1.483       .  S
C388        H390   1.082       .  S
N391        N392   1.323       .  A
N391        C395   1.346       .  A
N392        C393   1.349       .  A
C393        C394   1.393       .  A
C393        H396   1.082       .  S
C394        C395   1.390       .  A
C394       C1999   1.501       .  S
C395        H397   1.077       .  S
N398        N399   1.319       .  A
N398        C402   1.347       .  A
N398       Cu406   2.087       .  S
N399        C400   1.341       .  A
N399       Cu405   2.045       .  S
C400        C401   1.382       .  A
C400        H403   1.082       .  S
C401        C402   1.392       .  A
C401       C1279   1.487       .  S
C402        H404   1.078       .  S
Cu405       N408   2.048       .  S
Cu406       N416   2.088       .  S
Cu407       N409   2.102       .  S
Cu407       N415   2.103       .  S
N408        N409   1.320       .  A
N408        C412   1.341       .  A
N409        C410   1.348       .  A
C410        C411   1.397       .  A
C410        H413   1.075       .  S
C411        C412   1.384       .  A
C411       C1260   1.500       .  S
C412        H414   1.082       .  S
N415        N416   1.324       .  A
N415        C419   1.351       .  A
N416        C417   1.347       .  A
C417        C418   1.385       .  A
C417        H420   1.081       .  S
C418        C419   1.389       .  A
C418       C1244   1.492       .  S
C419        H421   1.082       .  S
O422       Cu430   2.037       .  S
O422        C432   1.281       .  A
O423       Cu430   2.033   1_556  S
O423        C433   1.281       .  A
O424       Cu430   1.976       .  S
O424        C434   1.273       .  A
O425       Cu430   1.976       .  S
O425        C435   1.274       .  A
O426       Cu431   2.038       .  S
O426        C435   1.281       .  A
O427       Cu431   2.038       .  S
O427        C434   1.282       .  A
O428       Cu431   1.978   1_556  S
O428        C433   1.272       .  A
O429       Cu431   1.984       .  S
O429        C432   1.274       .  A
Cu430      Cu431   2.368       .  S
C432       C1196   1.487       .  S
C433       C1423   1.470       .  S
C434       C1212   1.479       .  S
C435       C1231   1.500       .  S
N436        N437   1.319       .  A
N436        C440   1.346       .  A
N436       Cu444   2.080       .  S
N437        C438   1.341       .  A
N437       Cu443   2.047       .  S
C438        C439   1.383       .  A
C438        H441   1.082       .  S
C439        C440   1.391       .  A
C439       C1228   1.488       .  S
C440        H442   1.078       .  S
Cu443       N446   2.049       .  S
Cu444       N454   2.081       .  S
Cu445       N447   2.093       .  S
Cu445       N453   2.093       .  S
N446        N447   1.323       .  A
N446        C450   1.341       .  A
N447        C448   1.350       .  A
C448        C449   1.387       .  A
C448        H451   1.082       .  S
C449        C450   1.375       .  A
C449       C1660   1.473       .  S
C450        H452   1.082       .  S
N453        N454   1.323       .  A
N453        C457   1.348       .  A
N454        C455   1.346       .  A
C455        C456   1.384       .  A
C455        H458   1.082       .  S
C456        C457   1.386       .  A
C456       C1887   1.485   1_554  S
C457        H459   1.082       .  S
O460       Cu468   1.990       .  S
O460        C470   1.275       .  A
O461       Cu468   1.992       .  S
O461        C471   1.273       .  A
O462       Cu468   2.043   1_655  S
O462        C472   1.282       .  A
O463       Cu468   2.041       .  S
O463        C473   1.282       .  A
O464       Cu469   1.974       .  S
O464        C473   1.274       .  A
O465       Cu469   1.979   1_655  S
O465        C472   1.274       .  A
O466       Cu469   2.038       .  S
O466        C471   1.281       .  A
O467       Cu469   2.034       .  S
O467        C470   1.281       .  A
Cu468      Cu469   2.364       .  S
C470       C1180   1.494       .  S
C471       C1167   1.476       .  S
C472       C1711   1.499       .  S
C473       C1151   1.492       .  S
N474        N475   1.320       .  A
N474        C478   1.351       .  A
N474       Cu482   2.098   1_455  S
N475        C476   1.339       .  A
N475       Cu481   2.045       .  S
C476        C477   1.377       .  A
C476        H479   1.082       .  S
C477        C478   1.393       .  A
C477       C1487   1.481       .  S
C478        H480   1.081   1_455  S
Cu481       N484   2.046       .  S
Cu482       N492   2.100       .  S
Cu483       N485   2.094       .  S
Cu483       N491   2.096       .  S
N484        N485   1.320   1_455  A
N484        C488   1.340       .  A
N485        C486   1.351       .  A
C486        C487   1.390   1_655  A
C486        H489   1.082       .  S
C487        C488   1.376       .  A
C487       C1183   1.478       .  S
C488        H490   1.082       .  S
N491        N492   1.326       .  A
N491        C495   1.346       .  A
N492        C493   1.350       .  A
C493        C494   1.388       .  A
C493        H496   1.081       .  S
C494        C495   1.386       .  A
C494       C1967   1.492       .  S
C495        H497   1.082       .  S
N498        N499   1.321       .  A
N498        C502   1.348       .  A
N498       Cu506   2.091       .  S
N499        C500   1.342       .  A
N499       Cu505   2.052       .  S
C500        C501   1.380       .  A
C500        H503   1.082       .  S
C501        C502   1.389       .  A
C501       C1199   1.481       .  S
C502        H504   1.082       .  S
Cu505       N508   2.052       .  S
Cu506       N516   2.092       .  S
Cu507       N509   2.095       .  S
Cu507       N515   2.097       .  S
N508        N509   1.320       .  A
N508        C512   1.339       .  A
N509        C510   1.350       .  A
C510        C511   1.396       .  A
C510        H513   1.077       .  S
C511        C512   1.383       .  A
C511       C1148   1.495       .  S
C512        H514   1.082       .  S
N515        N516   1.324       .  A
N515        C519   1.348       .  A
N516        C517   1.350       .  A
C517        C518   1.387       .  A
C517        H520   1.082       .  S
C518        C519   1.387       .  A
C518       C1132   1.491       .  S
C519        H521   1.082       .  S
O522       Cu530   2.037       .  S
O522        C532   1.281       .  A
O523       Cu530   2.032       .  S
O523        C533   1.280       .  A
O524       Cu530   1.988       .  S
O524        C534   1.273       .  A
O525       Cu530   1.993   1_556  S
O525        C535   1.275       .  A
O526       Cu531   2.032   1_556  S
O526        C535   1.280       .  A
O527       Cu531   2.031       .  S
O527        C534   1.280       .  A
O528       Cu531   1.994       .  S
O528        C533   1.274       .  A
O529       Cu531   1.988       .  S
O529        C532   1.276       .  A
Cu530      Cu531   2.373       .  S
C532       C1116   1.494       .  S
C533       C1100   1.473       .  S
C534       C1084   1.471       .  S
C535       C1263   1.478       .  S
N536        N537   1.321       .  A
N536        C540   1.348       .  A
N536       Cu544   2.095       .  S
N537        C538   1.341       .  A
N537       Cu543   2.047       .  S
C538        C539   1.378       .  A
C538        H541   1.082       .  S
C539        C540   1.391       .  A
C539       C1628   1.482       .  S
C540        H542   1.081       .  S
Cu543       N546   2.048       .  S
Cu544       N554   2.097       .  S
Cu545       N547   2.105       .  S
Cu545       N553   2.106       .  S
N546        N547   1.321       .  A
N546        C550   1.342       .  A
N547        C548   1.351       .  A
C548        C549   1.391       .  A
C548        H551   1.082       .  S
C549        C550   1.377       .  A
C549       C1119   1.481       .  S
C550        H552   1.082       .  S
N553        N554   1.325       .  A
N553        C557   1.350       .  A
N554        C555   1.350       .  A
C555        C556   1.387       .  A
C555        H558   1.082       .  S
C556        C557   1.388       .  A
C556       C2012   1.490   1_554  S
C557        H559   1.082       .  S
O560       Cu568   2.057       .  S
O560        C570   1.284       .  A
O561       Cu568   2.049   1_565  S
O561        C571   1.283       .  A
O562       Cu568   1.974       .  S
O562        C572   1.273       .  A
O563       Cu568   1.983       .  S
O563        C573   1.271       .  A
O564       Cu569   2.057       .  S
O564        C573   1.285       .  A
O565       Cu569   2.050       .  S
O565        C572   1.283       .  A
O566       Cu569   1.971   1_565  S
O566        C571   1.270       .  A
O567       Cu569   1.961       .  S
O567        C570   1.272       .  A
Cu568      Cu569   2.367       .  S
C570       C1039   1.494       .  S
C571       C1759   1.472       .  S
C572       C1052   1.501       .  S
C573       C1068   1.481       .  S
N574        N575   1.320       .  A
N574        C578   1.347       .  A
N574       Cu582   2.087       .  S
N575        C576   1.341       .  A
N575       Cu581   2.051       .  S
C576        C577   1.382       .  A
C576        H579   1.082       .  S
C577        C578   1.391       .  A
C577       C1327   1.487       .  S
C578        H580   1.079       .  S
Cu581       N584   2.053       .  S
Cu582       N592   2.088       .  S
Cu583       N585   2.103       .  S
Cu583       N591   2.104       .  S
N584        N585   1.322       .  A
N584        C588   1.341       .  A
N585        C586   1.351       .  A
C586        C587   1.393       .  A
C586        H589   1.080       .  S
C587        C588   1.379       .  A
C587       C1071   1.487       .  S
C588        H590   1.082       .  S
N591        N592   1.320       .  A
N591        C595   1.347       .  A
N592        C593   1.348       .  A
C593        C594   1.396       .  A
C593        H596   1.074       .  S
C594        C595   1.398       .  A
C594       C1951   1.515   1_545  S
C595        H597   1.081   1_545  S
N598        N599   1.322       .  A
N598        C602   1.348       .  A
N598       Cu606   2.093       .  S
N599        C600   1.342       .  A
N599       Cu605   2.056       .  S
C600        C601   1.379       .  A
C600        H603   1.081       .  S
C601        C602   1.389       .  A
C601       C1087   1.481       .  S
C602        H604   1.082       .  S
Cu605       N608   2.053       .  S
Cu606       N616   2.093       .  S
Cu607       N609   2.088       .  S
Cu607       N615   2.089       .  S
N608        N609   1.318       .  A
N608        C612   1.342       .  A
N609        C610   1.346       .  A
C610        C611   1.396       .  A
C610        H613   1.075       .  S
C611        C612   1.388       .  A
C611       C1036   1.501       .  S
C612        H614   1.082       .  S
N615        N616   1.321       .  A
N615        C619   1.347       .  A
N616        C617   1.349       .  A
C617        C618   1.392       .  A
C617        H620   1.078       .  S
C618        C619   1.391       .  A
C618       C1020   1.499       .  S
C619        H621   1.082       .  S
O622       Cu630   2.050   1_565  S
O622        C632   1.283       .  A
O623       Cu630   2.048       .  S
O623        C633   1.283       .  A
O624       Cu630   1.979       .  S
O624        C634   1.272       .  A
O625       Cu630   1.985       .  S
O625        C635   1.274       .  A
O626       Cu631   2.041       .  S
O626        C635   1.282       .  A
O627       Cu631   2.039       .  S
O627        C634   1.282       .  A
O628       Cu631   1.970       .  S
O628        C633   1.272       .  A
O629       Cu631   1.980   1_565  S
O629        C632   1.274       .  A
Cu630      Cu631   2.365       .  S
C632       C1551   1.506       .  S
C633        C975   1.479       .  S
C634        C988   1.472       .  S
C635       C1004   1.498       .  S
N636        N637   1.320       .  A
N636        C640   1.349       .  A
N636       Cu644   2.083       .  S
N637        C638   1.341       .  A
N637       Cu643   2.049       .  S
C638        C639   1.378       .  A
C638        H641   1.082       .  S
C639        C640   1.388       .  A
C639       C1308   1.477       .  S
C640        H642   1.081       .  S
Cu643       N646   2.048       .  S
Cu644       N654   2.085       .  S
Cu645       N647   2.104       .  S
Cu645       N653   2.106       .  S
N646        N647   1.321       .  A
N646        C650   1.339       .  A
N647        C648   1.352       .  A
C648        C649   1.393       .  A
C648        H651   1.081       .  S
C649        C650   1.377       .  A
C649       C1007   1.484       .  S
C650        H652   1.082       .  S
N653        N654   1.325       .  A
N653        C657   1.351       .  A
N654        C655   1.345       .  A
C655        C656   1.383   1_545  A
C655        H658   1.082   1_545  S
C656        C657   1.388   1_565  A
C656       C1903   1.485       .  S
C657        H659   1.082   1_545  S
O660       Cu668   1.976   1_655  S
O660        C670   1.270       .  A
O661       Cu668   1.972       .  S
O661        C671   1.273       .  A
O662       Cu668   2.037       .  S
O662        C672   1.281       .  A
O663       Cu668   2.040       .  S
O663        C673   1.282       .  A
O664       Cu669   1.981       .  S
O664        C673   1.272       .  A
O665       Cu669   1.976       .  S
O665        C672   1.271       .  A
O666       Cu669   2.058       .  S
O666        C671   1.284       .  A
O667       Cu669   2.062   1_655  S
O667        C670   1.286       .  A
Cu668      Cu669   2.367       .  S
C670       C1391   1.492       .  S
C671        C924   1.503       .  S
C672        C940   1.469       .  S
C673        C956   1.477       .  S
N674        N675   1.319       .  A
N674        C678   1.349       .  A
N674       Cu682   2.092       .  S
N675        C676   1.339       .  A
N675       Cu681   2.047       .  S
C676        C677   1.381       .  A
C676        H679   1.082       .  S
C677        C678   1.395       .  A
C677       C1455   1.490       .  S
C678        H680   1.079   1_455  S
Cu681       N684   2.048       .  S
Cu682       N692   2.094       .  S
Cu683       N685   2.092       .  S
Cu683       N691   2.093       .  S
N684        N685   1.322       .  A
N684        C688   1.341       .  A
N685        C686   1.349       .  A
C686        C687   1.387       .  A
C686        H689   1.082       .  S
C687        C688   1.375       .  A
C687        C959   1.473       .  S
C688        H690   1.082       .  S
N691        N692   1.324       .  A
N691        C695   1.350       .  A
N692        C693   1.347   1_455  A
C693        C694   1.385       .  A
C693        H696   1.082       .  S
C694        C695   1.386   1_655  A
C694       C2031   1.486       .  S
C695        H697   1.082       .  S
N698        N699   1.322       .  A
N698        C702   1.349       .  A
N698       Cu706   2.092       .  S
N699        C700   1.341       .  A
N699       Cu705   2.045       .  S
C700        C701   1.374       .  A
C700        H703   1.082       .  S
C701        C702   1.387       .  A
C701        C972   1.473       .  S
C702        H704   1.082       .  S
Cu705       N708   2.045       .  S
Cu706       N716   2.093       .  S
Cu707       N709   2.093       .  S
Cu707       N715   2.094       .  S
N708        N709   1.320       .  A
N708        C712   1.341       .  A
N709        C710   1.348       .  A
C710        C711   1.391       .  A
C710        H713   1.081       .  S
C711        C712   1.378       .  A
C711        C927   1.482       .  S
C712        H714   1.082       .  S
N715        N716   1.324       .  A
N715        C719   1.347       .  A
N716        C717   1.349       .  A
C717        C718   1.388       .  A
C717        H720   1.082       .  S
C718        C719   1.387       .  A
C718        C908   1.491       .  S
C719        H721   1.081       .  S
N722        N723   1.321       .  A
N722        C726   1.354       .  A
N722       Cu730   2.109       .  S
N723        C724   1.338       .  A
N723       Cu729   2.044   1_455  S
C724        C725   1.378       .  A
C724        H727   1.082   1_455  S
C725        C726   1.396       .  A
C725       C1164   1.488       .  S
C726        H728   1.080       .  S
Cu729       N732   2.042   1_655  S
Cu730       N740   2.111       .  S
Cu731       N733   2.083       .  S
Cu731       N739   2.085       .  S
N732        N733   1.319       .  A
N732        C736   1.340   1_455  A
N733        C734   1.348       .  A
C734        C735   1.390       .  A
C734        H737   1.080       .  S
C735        C736   1.378   1_455  A
C735        C943   1.479       .  S
C736        H738   1.082       .  S
N739        N740   1.325       .  A
N739        C743   1.347       .  A
N740        C741   1.350       .  A
C741        C742   1.392       .  A
C741        H744   1.080       .  S
C742        C743   1.385       .  A
C742       C2095   1.495       .  S
C743        H745   1.082       .  S
N746        N747   1.319       .  A
N746        C750   1.350       .  A
N746       Cu754   2.094       .  S
N747        C748   1.339       .  A
N747       Cu753   2.041       .  S
C748        C749   1.379       .  A
C748        H751   1.082       .  S
C749        C750   1.393       .  A
C749       C1055   1.485       .  S
C750        H752   1.080       .  S
Cu753       N756   2.042       .  S
Cu754       N764   2.096       .  S
Cu755       N757   2.105       .  S
Cu755       N763   2.108       .  S
N756        N757   1.321       .  A
N756        C760   1.340       .  A
N757        C758   1.353       .  A
C758        C759   1.391       .  A
C758        H761   1.082       .  S
C759        C760   1.374       .  A
C759        C991   1.478       .  S
C760        H762   1.082       .  S
N763        N764   1.324       .  A
N763        C767   1.351       .  A
N764        C765   1.347       .  A
C765        C766   1.389       .  A
C765        H768   1.082       .  S
C766        C767   1.393       .  A
C766       C2079   1.502       .  S
C767        H769   1.079       .  S
N770        N771   1.321       .  A
N770        C774   1.349   1_556  A
N770       Cu778   2.092   1_556  S
N771        C772   1.340       .  A
N771       Cu777   2.044       .  S
C772        C773   1.376       .  A
C772        H775   1.082       .  S
C773        C774   1.389   1_556  A
C773       C1215   1.474       .  S
C774        H776   1.082       .  S
Cu777       N780   2.048       .  S
Cu778       N788   2.094       .  S
Cu779       N781   2.088       .  S
Cu779       N787   2.090       .  S
N780        N781   1.320   1_556  A
N780        C784   1.340       .  A
N781        C782   1.349       .  A
C782        C783   1.390       .  A
C782        H785   1.080       .  S
C783        C784   1.379   1_554  A
C783       C1103   1.482       .  S
C784        H786   1.082       .  S
N787        N788   1.324       .  A
N787        C791   1.347       .  A
N788        C789   1.347       .  A
C789        C790   1.388       .  A
C789        H792   1.082       .  S
C790        C791   1.388       .  A
C790       C2060   1.493       .  S
C791        H793   1.079       .  S
C794        C795   1.552       .  S
C794        C800   1.534       .  S
C794        C798   1.536       .  S
C794       C1247   1.566       .  S
C795        H802   1.069       .  S
C795        C796   1.391       .  D
C796        C797   1.566       .  S
C796        C892   1.552       .  S
C797        C801   1.551       .  S
C797        C799   1.536       .  S
C797        H803   1.091       .  S
C798        H804   1.086       .  S
C798        C799   1.361       .  D
C799       C1407   1.494       .  S
C800        H805   1.087       .  S
C800        C801   1.355       .  D
C801        C911   1.489       .  S
C806        C807   1.557       .  S
C806        C812   1.555       .  S
C806        C810   1.547       .  S
C806        C876   1.571       .  S
C807        H814   1.078       .  S
C807        C808   1.365       .  D
C808        C809   1.530       .  S
C808       C1679   1.489       .  S
C809        C813   1.543       .  S
C809        C811   1.538       .  S
C809        H815   1.107       .  S
C810        H816   1.086       .  S
C810        C811   1.372       .  D
C811       C1023   1.508       .  S
C812        H817   1.080       .  S
C812        C813   1.376       .  D
C813       C1359   1.514       .  S
C818        C819   1.547       .  S
C818        C824   1.536       .  S
C818        C822   1.544       .  S
C818       C1567   1.557       .  S
C819        H826   1.085       .  S
C819        C820   1.374       .  D
C820        C821   1.556       .  S
C820       C1823   1.510       .  S
C821        C825   1.562       .  S
C821        C823   1.546       .  S
C821        H827   1.110       .  S
C822        H828   1.085       .  S
C822        C823   1.359       .  D
C823       C1775   1.492       .  S
C824        H829   1.086       .  S
C824        C825   1.369       .  D
C825        C860   1.513       .  S
C830        C831   1.551       .  S
C830        C836   1.537       .  S
C830        C834   1.531       .  S
C830       C1135   1.567       .  S
C831        H838   1.066       .  S
C831        C832   1.394       .  D
C832        C833   1.579       .  S
C832        C844   1.566       .  S
C833        C837   1.543       .  S
C833        C835   1.558       .  S
C833        H839   1.092       .  S
C834        H840   1.087       .  S
C834        C835   1.355       .  D
C835       C1516   1.500       .  S
C836        H841   1.087       .  S
C836        C837   1.361       .  D
C837       C1727   1.499       .  S
C842        C847   1.617       .  S
C842        C863   1.616       .  S
C842        C879   1.617       .  S
C842        C895   1.612       .  S
C843        C844   1.416       .  A
C843        C848   1.419       .  A
C843        H850   1.078       .  S
C844        C845   1.435       .  A
C845        C852   1.518       .  S
C845        C846   1.427       .  A
C846        C847   1.424       .  A
C846        H851   1.072       .  S
C847        C848   1.445       .  A
C848        C849   1.530       .  S
C849        F853   1.386       .  S
C849        F854   1.370       .  S
C849        F855   1.382       .  S
C852        F856   1.377       .  S
C852        F857   1.383       .  S
C852        F858   1.385       .  S
C859        C860   1.401       .  A
C859        C864   1.427       .  A
C859        H866   1.085       .  S
C860        C861   1.407       .  A
C861        C868   1.513       .  S
C861        C862   1.408       .  A
C862        C863   1.425       .  A
C862        H867   1.067       .  S
C863        C864   1.455       .  A
C864        C865   1.525       .  S
C865        F869   1.385       .  S
C865        F870   1.383       .  S
C865        F871   1.372       .  S
C868        F872   1.377       .  S
C868        F873   1.383       .  S
C868        F874   1.385       .  S
C875        C876   1.413       .  A
C875        C880   1.421       .  A
C875        H882   1.075       .  S
C876        C877   1.426       .  A
C877        C884   1.527       .  S
C877        C878   1.413       .  A
C878        C879   1.426       .  A
C878        H883   1.072       .  S
C879        C880   1.449       .  A
C880        C881   1.532       .  S
C881        F885   1.386       .  S
C881        F886   1.370       .  S
C881        F887   1.382       .  S
C884        F888   1.383       .  S
C884        F889   1.371       .  S
C884        F890   1.385       .  S
C891        C892   1.412       .  A
C891        C896   1.416       .  A
C891        H898   1.081       .  S
C892        C893   1.433       .  A
C893        C900   1.520       .  S
C893        C894   1.423       .  A
C894        C895   1.422       .  A
C894        H899   1.073       .  S
C895        C896   1.447       .  A
C896        C897   1.531       .  S
C897        F901   1.386       .  S
C897        F902   1.382       .  S
C897        F903   1.371       .  S
C900        F904   1.383       .  S
C900        F905   1.381       .  S
C900        F906   1.385       .  S
C907        C908   1.405       .  A
C907        C912   1.411       .  A
C907        H914   1.085       .  S
C908        C909   1.419       .  A
C909        C916   1.520       .  S
C909        C910   1.410       .  A
C910        C911   1.404       .  A
C910        H915   1.081       .  S
C911        C912   1.420       .  A
C912        C913   1.519       .  S
C913        F917   1.383       .  S
C913        F918   1.383       .  S
C913        F919   1.381       .  S
C916        F920   1.384       .  S
C916        F921   1.380       .  S
C916        F922   1.384       .  S
C923        C924   1.415       .  A
C923        C928   1.404       .  A
C923        H930   1.082       .  S
C924        C925   1.424       .  A
C925        C932   1.518       .  S
C925        C926   1.413       .  A
C926        C927   1.406       .  A
C926        H931   1.083       .  S
C927        C928   1.410       .  A
C928        C929   1.521       .  S
C929        F933   1.384       .  S
C929        F934   1.384       .  S
C929        F935   1.381       .  S
C932        F936   1.383       .  S
C932        F937   1.379       .  S
C932        F938   1.385       .  S
C939        C940   1.400       .  A
C939        C944   1.408       .  A
C939        H946   1.084       .  S
C940        C941   1.412   1_455  A
C941        C948   1.516       .  S
C941        C942   1.405       .  A
C942        C943   1.404   1_655  A
C942        H947   1.083       .  S
C943        C944   1.420       .  A
C944        C945   1.519       .  S
C945        F949   1.385       .  S
C945        F950   1.383       .  S
C945        F951   1.381       .  S
C948        F952   1.383       .  S
C948        F953   1.382       .  S
C948        F954   1.385       .  S
C955        C956   1.401       .  A
C955        C960   1.407       .  A
C955        H962   1.080       .  S
C956        C957   1.419       .  A
C957        C964   1.517       .  S
C957        C958   1.405       .  A
C958        C959   1.398       .  A
C958        H963   1.083       .  S
C959        C960   1.415       .  A
C960        C961   1.517   1_455  S
C961        F965   1.385       .  S
C961        F966   1.383   1_655  S
C961        F967   1.382       .  S
C964        F968   1.384       .  S
C964        F969   1.381       .  S
C964        F970   1.385       .  S
C971        C972   1.405       .  A
C971        C976   1.413       .  A
C971        H978   1.083       .  S
C972        C973   1.410       .  A
C973        C980   1.518       .  S
C973        C974   1.402       .  A
C974        C975   1.406       .  A
C974        H979   1.084       .  S
C975        C976   1.416       .  A
C976        C977   1.516       .  S
C977        F981   1.385       .  S
C977        F982   1.383       .  S
C977        F983   1.382       .  S
C980        F984   1.383       .  S
C980        F985   1.383       .  S
C980        F986   1.384       .  S
C987        C988   1.401       .  A
C987        C992   1.405       .  A
C987        H994   1.084       .  S
C988        C989   1.412       .  A
C989        C996   1.516   1_545  S
C989        C990   1.412       .  A
C990        C991   1.406       .  A
C990        H995   1.083       .  S
C991        C992   1.415       .  A
C992        C993   1.519       .  S
C993        F997   1.384       .  S
C993        F998   1.383       .  S
C993        F999   1.382       .  S
C996       F1000   1.383       .  S
C996       F1001   1.383       .  S
C996       F1002   1.384       .  S
C1003      C1004   1.413       .  A
C1003      C1008   1.408       .  A
C1003      H1010   1.082       .  S
C1004      C1005   1.421       .  A
C1005      C1012   1.519       .  S
C1005      C1006   1.410       .  A
C1006      C1007   1.405       .  A
C1006      H1011   1.083       .  S
C1007      C1008   1.411       .  A
C1008      C1009   1.519       .  S
C1009      F1013   1.385       .  S
C1009      F1014   1.383       .  S
C1009      F1015   1.382       .  S
C1012      F1016   1.383       .  S
C1012      F1017   1.384   1_545  S
C1012      F1018   1.385       .  S
C1019      C1020   1.404       .  A
C1019      C1024   1.408       .  A
C1019      H1026   1.084       .  S
C1020      C1021   1.423       .  A
C1021      C1028   1.519       .  S
C1021      C1022   1.414       .  A
C1022      C1023   1.408       .  A
C1022      H1027   1.082       .  S
C1023      C1024   1.424       .  A
C1024      C1025   1.517       .  S
C1025      F1029   1.385       .  S
C1025      F1030   1.376       .  S
C1025      F1031   1.383       .  S
C1028      F1032   1.384       .  S
C1028      F1033   1.380       .  S
C1028      F1034   1.385       .  S
C1035      C1036   1.414       .  A
C1035      C1040   1.413       .  A
C1035      H1042   1.081       .  S
C1036      C1037   1.421       .  A
C1037      C1044   1.522       .  S
C1037      C1038   1.405       .  A
C1038      C1039   1.408       .  A
C1038      H1043   1.083       .  S
C1039      C1040   1.416       .  A
C1040      C1041   1.519       .  S
C1041      F1045   1.385       .  S
C1041      F1046   1.384       .  S
C1041      F1047   1.383       .  S
C1044      F1048   1.383       .  S
C1044      F1049   1.381       .  S
C1044      F1050   1.385       .  S
C1051      C1052   1.414       .  A
C1051      C1056   1.406       .  A
C1051      H1058   1.081       .  S
C1052      C1053   1.421       .  A
C1053      C1060   1.518       .  S
C1053      C1054   1.412       .  A
C1054      C1055   1.407       .  A
C1054      H1059   1.083       .  S
C1055      C1056   1.412       .  A
C1056      C1057   1.521       .  S
C1057      F1061   1.385       .  S
C1057      F1062   1.383       .  S
C1057      F1063   1.381       .  S
C1060      F1064   1.383       .  S
C1060      F1065   1.384   1_545  S
C1060      F1066   1.385   1_545  S
C1067      C1068   1.402       .  A
C1067      C1072   1.412       .  A
C1067      H1074   1.079   1_545  S
C1068      C1069   1.416       .  A
C1069      C1076   1.519       .  S
C1069      C1070   1.407       .  A
C1070      C1071   1.404       .  A
C1070      H1075   1.083       .  S
C1071      C1072   1.420       .  A
C1072      C1073   1.518   1_545  S
C1073      F1077   1.385       .  S
C1073      F1078   1.383       .  S
C1073      F1079   1.381       .  S
C1076      F1080   1.383       .  S
C1076      F1081   1.382       .  S
C1076      F1082   1.384       .  S
C1083      C1084   1.401       .  A
C1083      C1088   1.408       .  A
C1083      H1090   1.083       .  S
C1084      C1085   1.412       .  A
C1085      C1092   1.517       .  S
C1085      C1086   1.407       .  A
C1086      C1087   1.404       .  A
C1086      H1091   1.083       .  S
C1087      C1088   1.418       .  A
C1088      C1089   1.519       .  S
C1089      F1093   1.385       .  S
C1089      F1094   1.383       .  S
C1089      F1095   1.381       .  S
C1092      F1096   1.383       .  S
C1092      F1097   1.383       .  S
C1092      F1098   1.384       .  S
C1099      C1100   1.401       .  A
C1099      C1104   1.410       .  A
C1099      H1106   1.084       .  S
C1100      C1101   1.412   1_554  A
C1101      C1108   1.514       .  S
C1101      C1102   1.404       .  A
C1102      C1103   1.404   1_556  A
C1102      H1107   1.083       .  S
C1103      C1104   1.420       .  A
C1104      C1105   1.518       .  S
C1105      F1109   1.385       .  S
C1105      F1110   1.380       .  S
C1105      F1111   1.384       .  S
C1108      F1112   1.382       .  S
C1108      F1113   1.381       .  S
C1108      F1114   1.385       .  S
C1115      C1116   1.410       .  A
C1115      C1120   1.406       .  A
C1115      H1122   1.082       .  S
C1116      C1117   1.422       .  A
C1117      C1124   1.520       .  S
C1117      C1118   1.412       .  A
C1118      C1119   1.404       .  A
C1118      H1123   1.083       .  S
C1119      C1120   1.410       .  A
C1120      C1121   1.518       .  S
C1121      F1125   1.385       .  S
C1121      F1126   1.383       .  S
C1121      F1127   1.382       .  S
C1124      F1128   1.383       .  S
C1124      F1129   1.382   1_554  S
C1124      F1130   1.385       .  S
C1131      C1132   1.403       .  A
C1131      C1136   1.422       .  A
C1131      H1138   1.083       .  S
C1132      C1133   1.409       .  A
C1133      C1140   1.521       .  S
C1133      C1134   1.404       .  A
C1134      C1135   1.421       .  A
C1134      H1139   1.080       .  S
C1135      C1136   1.435       .  A
C1136      C1137   1.515       .  S
C1137      F1141   1.382       .  S
C1137      F1142   1.383       .  S
C1137      F1143   1.385       .  S
C1140      F1144   1.381       .  S
C1140      F1145   1.384       .  S
C1140      F1146   1.385       .  S
C1147      C1148   1.411       .  A
C1147      C1152   1.410       .  A
C1147      H1154   1.082       .  S
C1148      C1149   1.419       .  A
C1149      C1156   1.519       .  S
C1149      C1150   1.407       .  A
C1150      C1151   1.409       .  A
C1150      H1155   1.083       .  S
C1151      C1152   1.417       .  A
C1152      C1153   1.519       .  S
C1153      F1157   1.385       .  S
C1153      F1158   1.383       .  S
C1153      F1159   1.384       .  S
C1156      F1160   1.381       .  S
C1156      F1161   1.383       .  S
C1156      F1162   1.385       .  S
C1163      C1164   1.405       .  A
C1163      C1168   1.403   1_455  A
C1163      H1170   1.083   1_455  S
C1164      C1165   1.421       .  A
C1165      C1172   1.517       .  S
C1165      C1166   1.414       .  A
C1166      C1167   1.403       .  A
C1166      H1171   1.083       .  S
C1167      C1168   1.412   1_455  A
C1168      C1169   1.519       .  S
C1169      F1173   1.384       .  S
C1169      F1174   1.382       .  S
C1169      F1175   1.383       .  S
C1172      F1176   1.381       .  S
C1172      F1177   1.383       .  S
C1172      F1178   1.385       .  S
C1179      C1180   1.411       .  A
C1179      C1184   1.406       .  A
C1179      H1186   1.082       .  S
C1180      C1181   1.422   1_455  A
C1181      C1188   1.519       .  S
C1181      C1182   1.410       .  A
C1182      C1183   1.403   1_655  A
C1182      H1187   1.083       .  S
C1183      C1184   1.410       .  A
C1184      C1185   1.518       .  S
C1185      F1189   1.385       .  S
C1185      F1190   1.384       .  S
C1185      F1191   1.382       .  S
C1188      F1192   1.383   1_655  S
C1188      F1193   1.383       .  S
C1188      F1194   1.385       .  S
C1195      C1196   1.408       .  A
C1195      C1200   1.406       .  A
C1195      H1202   1.083       .  S
C1196      C1197   1.419       .  A
C1197      C1204   1.519       .  S
C1197      C1198   1.410       .  A
C1198      C1199   1.406       .  A
C1198      H1203   1.083       .  S
C1199      C1200   1.411       .  A
C1200      C1201   1.518       .  S
C1201      F1205   1.385       .  S
C1201      F1206   1.383       .  S
C1201      F1207   1.381       .  S
C1204      F1208   1.382       .  S
C1204      F1209   1.384       .  S
C1204      F1210   1.385       .  S
C1211      C1212   1.407   1_556  A
C1211      C1216   1.404       .  A
C1211      H1218   1.084       .  S
C1212      C1213   1.416       .  A
C1213      C1220   1.517       .  S
C1213      C1214   1.409       .  A
C1214      C1215   1.404   1_554  A
C1214      H1219   1.083       .  S
C1215      C1216   1.409       .  A
C1216      C1217   1.517       .  S
C1217      F1221   1.385       .  S
C1217      F1222   1.383       .  S
C1217      F1223   1.384       .  S
C1220      F1224   1.383       .  S
C1220      F1225   1.383       .  S
C1220      F1226   1.385       .  S
C1227      C1228   1.408       .  A
C1227      C1232   1.411       .  A
C1227      H1234   1.082       .  S
C1228      C1229   1.415       .  A
C1229      C1236   1.521       .  S
C1229      C1230   1.403       .  A
C1230      C1231   1.412       .  A
C1230      H1235   1.081       .  S
C1231      C1232   1.423       .  A
C1232      C1233   1.520       .  S
C1233      F1237   1.385       .  S
C1233      F1238   1.382       .  S
C1233      F1239   1.383       .  S
C1236      F1240   1.381       .  S
C1236      F1241   1.383       .  S
C1236      F1242   1.385       .  S
C1243      C1244   1.401       .  A
C1243      C1248   1.421       .  A
C1243      H1250   1.083       .  S
C1244      C1245   1.410       .  A
C1245      C1252   1.522       .  S
C1245      C1246   1.406       .  A
C1246      C1247   1.421       .  A
C1246      H1251   1.082       .  S
C1247      C1248   1.437       .  A
C1248      C1249   1.518       .  S
C1249      F1253   1.385       .  S
C1249      F1254   1.383       .  S
C1249      F1255   1.382       .  S
C1252      F1256   1.383       .  S
C1252      F1257   1.381       .  S
C1252      F1258   1.385       .  S
C1259      C1260   1.414       .  A
C1259      C1264   1.410       .  A
C1259      H1266   1.082       .  S
C1260      C1261   1.425       .  A
C1261      C1268   1.519       .  S
C1261      C1262   1.405       .  A
C1262      C1263   1.398       .  A
C1262      H1267   1.079       .  S
C1263      C1264   1.411       .  A
C1264      C1265   1.518       .  S
C1265      F1269   1.384       .  S
C1265      F1270   1.383       .  S
C1265      F1271   1.381       .  S
C1268      F1272   1.383       .  S
C1268      F1273   1.381       .  S
C1268      F1274   1.385       .  S
C1275      C1276   1.414       .  A
C1275      C1280   1.402       .  A
C1275      H1282   1.081       .  S
C1276      C1277   1.421       .  A
C1277      C1284   1.519       .  S
C1277      C1278   1.413       .  A
C1278      C1279   1.409       .  A
C1278      H1283   1.082       .  S
C1279      C1280   1.413       .  A
C1280      C1281   1.522       .  S
C1281      F1285   1.385       .  S
C1281      F1286   1.383       .  S
C1281      F1287   1.380       .  S
C1284      F1288   1.383       .  S
C1284      F1289   1.383       .  S
C1284      F1290   1.385       .  S
C1291      C1292   1.402       .  A
C1291      C1296   1.409       .  A
C1291      H1298   1.083       .  S
C1292      C1293   1.416   1_545  A
C1293      C1300   1.518       .  S
C1293      C1294   1.406       .  A
C1294      C1295   1.401   1_565  A
C1294      H1299   1.083       .  S
C1295      C1296   1.417       .  A
C1296      C1297   1.517       .  S
C1297      F1301   1.384       .  S
C1297      F1302   1.383       .  S
C1297      F1303   1.382       .  S
C1300      F1304   1.384       .  S
C1300      F1305   1.382       .  S
C1300      F1306   1.384       .  S
C1307      C1308   1.402       .  A
C1307      C1312   1.404       .  A
C1307      H1314   1.083       .  S
C1308      C1309   1.419       .  A
C1309      C1316   1.518   1_545  S
C1309      C1310   1.409       .  A
C1310      C1311   1.401       .  A
C1310      H1315   1.083   1_545  S
C1311      C1312   1.413       .  A
C1312      C1313   1.518       .  S
C1313      F1317   1.384       .  S
C1313      F1318   1.383       .  S
C1313      F1319   1.382       .  S
C1316      F1320   1.383       .  S
C1316      F1321   1.381       .  S
C1316      F1322   1.385       .  S
C1323      C1324   1.414       .  A
C1323      C1328   1.404       .  A
C1323      H1330   1.081       .  S
C1324      C1325   1.423       .  A
C1325      C1332   1.519       .  S
C1325      C1326   1.412       .  A
C1326      C1327   1.407       .  A
C1326      H1331   1.082       .  S
C1327      C1328   1.413       .  A
C1328      C1329   1.521       .  S
C1329      F1333   1.385       .  S
C1329      F1334   1.383       .  S
C1329      F1335   1.380       .  S
C1332      F1336   1.383       .  S
C1332      F1337   1.380       .  S
C1332      F1338   1.385       .  S
C1339      C1340   1.413       .  A
C1339      C1344   1.403       .  A
C1339      H1346   1.082       .  S
C1340      C1341   1.422       .  A
C1341      C1348   1.519       .  S
C1341      C1342   1.413       .  A
C1342      C1343   1.407       .  A
C1342      H1347   1.083       .  S
C1343      C1344   1.411       .  A
C1344      C1345   1.521       .  S
C1345      F1349   1.385   1_545  S
C1345      F1350   1.383   1_545  S
C1345      F1351   1.381       .  S
C1348      F1352   1.383       .  S
C1348      F1353   1.381       .  S
C1348      F1354   1.385       .  S
C1355      C1356   1.405       .  A
C1355      C1360   1.417       .  A
C1355      H1362   1.083       .  S
C1356      C1357   1.417       .  A
C1357      C1364   1.519       .  S
C1357      C1358   1.410       .  A
C1358      C1359   1.409       .  A
C1358      H1363   1.081       .  S
C1359      C1360   1.427       .  A
C1360      C1361   1.519       .  S
C1361      F1365   1.385       .  S
C1361      F1366   1.379       .  S
C1361      F1367   1.380       .  S
C1364      F1368   1.383       .  S
C1364      F1369   1.381       .  S
C1364      F1370   1.385       .  S
C1371      C1372   1.409       .  A
C1371      C1376   1.406       .  A
C1371      H1378   1.083       .  S
C1372      C1373   1.423       .  A
C1373      C1380   1.518       .  S
C1373      C1374   1.410       .  A
C1374      C1375   1.401       .  A
C1374      H1379   1.084       .  S
C1375      C1376   1.410       .  A
C1376      C1377   1.517       .  S
C1377      F1381   1.385       .  S
C1377      F1382   1.383       .  S
C1377      F1383   1.380       .  S
C1380      F1384   1.383       .  S
C1380      F1385   1.381       .  S
C1380      F1386   1.385       .  S
C1387      C1388   1.397       .  A
C1387      C1392   1.408       .  A
C1387      H1394   1.084       .  S
C1388      C1389   1.417       .  A
C1389      C1396   1.518       .  S
C1389      C1390   1.412       .  A
C1390      C1391   1.404       .  A
C1390      H1395   1.082       .  S
C1391      C1392   1.426       .  A
C1392      C1393   1.519       .  S
C1393      F1397   1.385       .  S
C1393      F1398   1.382       .  S
C1393      F1399   1.381       .  S
C1396      F1400   1.383       .  S
C1396      F1401   1.382       .  S
C1396      F1402   1.384       .  S
C1403      C1404   1.409       .  A
C1403      C1408   1.405       .  A
C1403      H1410   1.084       .  S
C1404      C1405   1.427       .  A
C1405      C1412   1.520       .  S
C1405      C1406   1.410       .  A
C1406      C1407   1.401       .  A
C1406      H1411   1.078       .  S
C1407      C1408   1.416       .  A
C1408      C1409   1.518       .  S
C1409      F1413   1.384       .  S
C1409      F1414   1.383       .  S
C1409      F1415   1.383       .  S
C1412      F1416   1.381       .  S
C1412      F1417   1.383       .  S
C1412      F1418   1.385       .  S
C1419      C1420   1.401       .  A
C1419      C1424   1.405       .  A
C1419      H1426   1.083       .  S
C1420      C1421   1.418       .  A
C1421      C1428   1.518       .  S
C1421      C1422   1.408       .  A
C1422      C1423   1.400       .  A
C1422      H1427   1.084       .  S
C1423      C1424   1.415       .  A
C1424      C1425   1.518       .  S
C1425      F1429   1.384       .  S
C1425      F1430   1.381       .  S
C1425      F1431   1.384       .  S
C1428      F1432   1.381       .  S
C1428      F1433   1.384       .  S
C1428      F1434   1.384       .  S
C1435      C1436   1.406       .  A
C1435      C1440   1.410       .  A
C1435      H1442   1.083       .  S
C1436      C1437   1.411       .  A
C1437      C1444   1.521       .  S
C1437      C1438   1.403       .  A
C1438      C1439   1.413       .  A
C1438      H1443   1.082       .  S
C1439      C1440   1.421       .  A
C1440      C1441   1.519       .  S
C1441      F1445   1.385       .  S
C1441      F1446   1.383       .  S
C1441      F1447   1.384       .  S
C1444      F1448   1.381       .  S
C1444      F1449   1.383       .  S
C1444      F1450   1.385       .  S
C1451      C1452   1.413       .  A
C1451      C1456   1.406       .  A
C1451      H1458   1.082       .  S
C1452      C1453   1.420       .  A
C1453      C1460   1.520       .  S
C1453      C1454   1.411       .  A
C1454      C1455   1.409       .  A
C1454      H1459   1.082       .  S
C1455      C1456   1.415       .  A
C1456      C1457   1.521       .  S
C1457      F1461   1.385       .  S
C1457      F1462   1.384       .  S
C1457      F1463   1.380   1_455  S
C1460      F1464   1.384       .  S
C1460      F1465   1.383       .  S
C1460      F1466   1.385       .  S
C1467      C1468   1.407   1_655  A
C1467      C1472   1.401       .  A
C1467      H1474   1.083       .  S
C1468      C1469   1.418       .  A
C1469      C1476   1.518       .  S
C1469      C1470   1.410       .  A
C1470      C1471   1.404       .  A
C1470      H1475   1.083       .  S
C1471      C1472   1.408   1_455  A
C1472      C1473   1.517       .  S
C1473      F1477   1.385       .  S
C1473      F1478   1.383       .  S
C1473      F1479   1.383       .  S
C1476      F1480   1.382       .  S
C1476      F1481   1.384       .  S
C1476      F1482   1.385       .  S
C1483      C1484   1.412       .  A
C1483      C1488   1.407       .  A
C1483      H1490   1.083       .  S
C1484      C1485   1.420       .  A
C1485      C1492   1.519       .  S
C1485      C1486   1.409       .  A
C1486      C1487   1.405       .  A
C1486      H1491   1.083       .  S
C1487      C1488   1.411       .  A
C1488      C1489   1.518       .  S
C1489      F1493   1.385       .  S
C1489      F1494   1.382       .  S
C1489      F1495   1.383       .  S
C1492      F1496   1.384   1_455  S
C1492      F1497   1.383       .  S
C1492      F1498   1.385   1_455  S
C1499      C1500   1.402       .  A
C1499      C1504   1.409       .  A
C1499      H1506   1.079       .  S
C1500      C1501   1.421   1_455  A
C1501      C1508   1.519       .  S
C1501      C1502   1.404       .  A
C1502      C1503   1.397   1_655  A
C1502      H1507   1.083       .  S
C1503      C1504   1.415       .  A
C1504      C1505   1.517       .  S
C1505      F1509   1.385       .  S
C1505      F1510   1.383       .  S
C1505      F1511   1.383       .  S
C1508      F1512   1.384       .  S
C1508      F1513   1.381       .  S
C1508      F1514   1.385       .  S
C1515      C1516   1.407       .  A
C1515      C1520   1.416       .  A
C1515      H1522   1.080       .  S
C1516      C1517   1.429       .  A
C1517      C1524   1.519       .  S
C1517      C1518   1.406       .  A
C1518      C1519   1.397       .  A
C1518      H1523   1.085       .  S
C1519      C1520   1.416       .  A
C1520      C1521   1.515       .  S
C1521      F1525   1.385       .  S
C1521      F1526   1.382       .  S
C1521      F1527   1.383       .  S
C1524      F1528   1.383       .  S
C1524      F1529   1.375       .  S
C1524      F1530   1.384       .  S
C1531      C1532   1.401       .  A
C1531      C1536   1.410       .  A
C1531      H1538   1.083       .  S
C1532      C1533   1.414       .  A
C1533      C1540   1.515       .  S
C1533      C1534   1.404       .  A
C1534      C1535   1.402       .  A
C1534      H1539   1.083       .  S
C1535      C1536   1.418       .  A
C1536      C1537   1.517       .  S
C1537      F1541   1.385       .  S
C1537      F1542   1.382       .  S
C1537      F1543   1.383       .  S
C1540      F1544   1.382       .  S
C1540      F1545   1.383       .  S
C1540      F1546   1.385       .  S
C1547      C1548   1.405       .  A
C1547      C1552   1.413       .  A
C1547      H1554   1.083       .  S
C1548      C1549   1.411       .  A
C1549      C1556   1.520       .  S
C1549      C1550   1.407       .  A
C1550      C1551   1.415       .  A
C1550      H1555   1.081       .  S
C1551      C1552   1.424       .  A
C1552      C1553   1.519       .  S
C1553      F1557   1.385       .  S
C1553      F1558   1.383       .  S
C1553      F1559   1.383       .  S
C1556      F1560   1.381       .  S
C1556      F1561   1.384       .  S
C1556      F1562   1.385       .  S
C1563      C1564   1.411       .  A
C1563      C1568   1.410       .  A
C1563      H1570   1.082       .  S
C1564      C1565   1.430       .  A
C1565      C1572   1.519       .  S
C1565      C1566   1.413       .  A
C1566      C1567   1.410       .  A
C1566      H1571   1.080       .  S
C1567      C1568   1.422       .  A
C1568      C1569   1.516       .  S
C1569      F1573   1.385       .  S
C1569      F1574   1.382       .  S
C1569      F1575   1.374       .  S
C1572      F1576   1.383       .  S
C1572      F1577   1.383       .  S
C1572      F1578   1.385       .  S
C1579      C1580   1.403       .  A
C1579      C1584   1.402       .  A
C1579      H1586   1.083       .  S
C1580      C1581   1.420       .  A
C1581      C1588   1.518       .  S
C1581      C1582   1.410       .  A
C1582      C1583   1.401       .  A
C1582      H1587   1.083       .  S
C1583      C1584   1.412       .  A
C1584      C1585   1.519       .  S
C1585      F1589   1.384       .  S
C1585      F1590   1.383       .  S
C1585      F1591   1.382       .  S
C1588      F1592   1.383       .  S
C1588      F1593   1.381       .  S
C1588      F1594   1.385       .  S
C1595      C1596   1.399       .  A
C1595      C1600   1.407       .  A
C1595      H1602   1.083       .  S
C1596      C1597   1.417       .  A
C1597      C1604   1.517       .  S
C1597      C1598   1.410       .  A
C1598      C1599   1.402       .  A
C1598      H1603   1.083       .  S
C1599      C1600   1.419       .  A
C1600      C1601   1.517       .  S
C1601      F1605   1.385       .  S
C1601      F1606   1.381       .  S
C1601      F1607   1.384       .  S
C1604      F1608   1.382       .  S
C1604      F1609   1.383       .  S
C1604      F1610   1.385       .  S
C1611      C1612   1.414       .  A
C1611      C1616   1.403   1_554  A
C1611      H1618   1.082   1_554  S
C1612      C1613   1.423       .  A
C1613      C1620   1.520       .  S
C1613      C1614   1.411       .  A
C1614      C1615   1.406       .  A
C1614      H1619   1.083       .  S
C1615      C1616   1.411   1_554  A
C1616      C1617   1.521       .  S
C1617      F1621   1.385       .  S
C1617      F1622   1.381   1_556  S
C1617      F1623   1.384       .  S
C1620      F1624   1.381       .  S
C1620      F1625   1.383   1_554  S
C1620      F1626   1.385       .  S
C1627      C1628   1.406       .  A
C1627      C1632   1.412       .  A
C1627      H1634   1.083       .  S
C1628      C1629   1.411       .  A
C1629      C1636   1.520       .  S
C1629      C1630   1.403       .  A
C1630      C1631   1.413       .  A
C1630      H1635   1.082       .  S
C1631      C1632   1.422       .  A
C1632      C1633   1.518       .  S
C1633      F1637   1.385       .  S
C1633      F1638   1.380       .  S
C1633      F1639   1.383       .  S
C1636      F1640   1.380       .  S
C1636      F1641   1.384       .  S
C1636      F1642   1.385       .  S
C1643      C1644   1.405   1_556  A
C1643      C1648   1.403       .  A
C1643      H1650   1.083       .  S
C1644      C1645   1.418       .  A
C1645      C1652   1.518       .  S
C1645      C1646   1.412       .  A
C1646      C1647   1.404       .  A
C1646      H1651   1.083       .  S
C1647      C1648   1.411   1_554  A
C1648      C1649   1.518       .  S
C1649      F1653   1.384       .  S
C1649      F1654   1.383       .  S
C1649      F1655   1.383       .  S
C1652      F1656   1.383       .  S
C1652      F1657   1.384       .  S
C1652      F1658   1.384       .  S
C1659      C1660   1.404       .  A
C1659      C1664   1.412       .  A
C1659      H1666   1.083       .  S
C1660      C1661   1.411       .  A
C1661      C1668   1.518       .  S
C1661      C1662   1.402       .  A
C1662      C1663   1.405       .  A
C1662      H1667   1.083       .  S
C1663      C1664   1.417       .  A
C1664      C1665   1.518   1_554  S
C1665      F1669   1.385       .  S
C1665      F1670   1.382       .  S
C1665      F1671   1.384       .  S
C1668      F1672   1.383       .  S
C1668      F1673   1.383       .  S
C1668      F1674   1.384       .  S
C1675      C1676   1.406       .  A
C1675      C1680   1.410       .  A
C1675      H1682   1.083       .  S
C1676      C1677   1.420       .  A
C1677      C1684   1.519       .  S
C1677      C1678   1.409       .  A
C1678      C1679   1.402       .  A
C1678      H1683   1.084       .  S
C1679      C1680   1.419       .  A
C1680      C1681   1.521       .  S
C1681      F1685   1.384       .  S
C1681      F1686   1.382       .  S
C1681      F1687   1.381       .  S
C1684      F1688   1.383       .  S
C1684      F1689   1.380       .  S
C1684      F1690   1.385       .  S
C1691      C1692   1.400       .  A
C1691      C1696   1.407       .  A
C1691      H1698   1.084       .  S
C1692      C1693   1.413       .  A
C1693      C1700   1.515       .  S
C1693      C1694   1.406       .  A
C1694      C1695   1.403       .  A
C1694      H1699   1.083       .  S
C1695      C1696   1.419       .  A
C1696      C1697   1.518       .  S
C1697      F1701   1.385       .  S
C1697      F1702   1.381       .  S
C1697      F1703   1.383       .  S
C1700      F1704   1.380       .  S
C1700      F1705   1.383       .  S
C1700      F1706   1.385       .  S
C1707      C1708   1.408       .  A
C1707      C1712   1.411       .  A
C1707      H1714   1.083       .  S
C1708      C1709   1.414       .  A
C1709      C1716   1.521       .  S
C1709      C1710   1.406       .  A
C1710      C1711   1.412       .  A
C1710      H1715   1.082       .  S
C1711      C1712   1.421       .  A
C1712      C1713   1.519       .  S
C1713      F1717   1.385       .  S
C1713      F1718   1.383       .  S
C1713      F1719   1.384       .  S
C1716      F1720   1.380       .  S
C1716      F1721   1.384       .  S
C1716      F1722   1.385       .  S
C1723      C1724   1.407       .  A
C1723      C1728   1.408       .  A
C1723      H1730   1.084       .  S
C1724      C1725   1.428       .  A
C1725      C1732   1.520       .  S
C1725      C1726   1.415       .  A
C1726      C1727   1.403       .  A
C1726      H1731   1.082       .  S
C1727      C1728   1.418       .  A
C1728      C1729   1.517       .  S
C1729      F1733   1.384       .  S
C1729      F1734   1.383       .  S
C1729      F1735   1.383       .  S
C1732      F1736   1.383       .  S
C1732      F1737   1.381       .  S
C1732      F1738   1.385       .  S
C1739      C1740   1.407       .  A
C1739      C1744   1.415       .  A
C1739      H1746   1.083       .  S
C1740      C1741   1.411       .  A
C1741      C1748   1.520       .  S
C1741      C1742   1.405       .  A
C1742      C1743   1.414       .  A
C1742      H1747   1.081       .  S
C1743      C1744   1.424       .  A
C1744      C1745   1.519       .  S
C1745      F1749   1.385       .  S
C1745      F1750   1.383       .  S
C1745      F1751   1.383       .  S
C1748      F1752   1.381       .  S
C1748      F1753   1.383       .  S
C1748      F1754   1.385       .  S
C1755      C1756   1.403       .  A
C1755      C1760   1.402       .  A
C1755      H1762   1.083       .  S
C1756      C1757   1.420       .  A
C1757      C1764   1.518       .  S
C1757      C1758   1.411       .  A
C1758      C1759   1.402       .  A
C1758      H1763   1.083       .  S
C1759      C1760   1.412       .  A
C1760      C1761   1.514       .  S
C1761      F1765   1.385       .  S
C1761      F1766   1.382       .  S
C1761      F1767   1.383       .  S
C1764      F1768   1.381       .  S
C1764      F1769   1.383       .  S
C1764      F1770   1.385       .  S
C1771      C1772   1.396       .  A
C1771      C1776   1.404       .  A
C1771      H1778   1.085       .  S
C1772      C1773   1.416       .  A
C1773      C1780   1.514       .  S
C1773      C1774   1.414       .  A
C1774      C1775   1.405       .  A
C1774      H1779   1.083       .  S
C1775      C1776   1.428       .  A
C1776      C1777   1.521       .  S
C1777      F1781   1.384       .  S
C1777      F1782   1.377       .  S
C1777      F1783   1.383       .  S
C1780      F1784   1.383       .  S
C1780      F1785   1.383       .  S
C1780      F1786   1.385       .  S
C1787      C1788   1.407       .  A
C1787      C1792   1.412       .  A
C1787      H1794   1.083       .  S
C1788      C1789   1.411       .  A
C1789      C1796   1.521       .  S
C1789      C1790   1.402       .  A
C1790      C1791   1.414       .  A
C1790      H1795   1.081       .  S
C1791      C1792   1.422       .  A
C1792      C1793   1.518       .  S
C1793      F1797   1.385       .  S
C1793      F1798   1.383       .  S
C1793      F1799   1.381       .  S
C1796      F1800   1.384       .  S
C1796      F1801   1.381       .  S
C1796      F1802   1.385       .  S
C1803      C1804   1.406       .  A
C1803      C1808   1.413       .  A
C1803      H1810   1.083       .  S
C1804      C1805   1.411       .  A
C1805      C1812   1.520       .  S
C1805      C1806   1.407       .  A
C1806      C1807   1.413       .  A
C1806      H1811   1.082       .  S
C1807      C1808   1.422       .  A
C1808      C1809   1.518       .  S
C1809      F1813   1.385       .  S
C1809      F1814   1.384       .  S
C1809      F1815   1.383       .  S
C1812      F1816   1.382       .  S
C1812      F1817   1.383       .  S
C1812      F1818   1.384       .  S
C1819      C1820   1.407       .  A
C1819      C1824   1.409       .  A
C1819      H1826   1.084       .  S
C1820      C1821   1.426       .  A
C1821      C1828   1.519       .  S
C1821      C1822   1.417       .  A
C1822      C1823   1.408       .  A
C1822      H1827   1.081       .  S
C1823      C1824   1.423       .  A
C1824      C1825   1.516       .  S
C1825      F1829   1.384       .  S
C1825      F1830   1.374       .  S
C1825      F1831   1.383       .  S
C1828      F1832   1.380       .  S
C1828      F1833   1.383       .  S
C1828      F1834   1.384       .  S
C1835      C1836   1.404       .  A
C1835      C1840   1.411       .  A
C1835      H1842   1.083       .  S
C1836      C1837   1.409       .  A
C1837      C1844   1.520       .  S
C1837      C1838   1.403       .  A
C1838      C1839   1.415       .  A
C1838      H1843   1.081       .  S
C1839      C1840   1.424       .  A
C1840      C1841   1.519       .  S
C1841      F1845   1.385       .  S
C1841      F1846   1.384       .  S
C1841      F1847   1.381       .  S
C1844      F1848   1.384       .  S
C1844      F1849   1.381       .  S
C1844      F1850   1.385       .  S
C1851      C1852   1.404       .  A
C1851      C1856   1.407       .  A
C1851      H1858   1.083       .  S
C1852      C1853   1.420       .  A
C1853      C1860   1.518       .  S
C1853      C1854   1.411       .  A
C1854      C1855   1.401       .  A
C1854      H1859   1.083       .  S
C1855      C1856   1.414       .  A
C1856      C1857   1.515       .  S
C1857      F1861   1.385       .  S
C1857      F1862   1.384       .  S
C1857      F1863   1.380       .  S
C1860      F1864   1.384       .  S
C1860      F1865   1.381       .  S
C1860      F1866   1.385       .  S
C1867      C1868   1.404       .  A
C1867      C1872   1.414       .  A
C1867      H1874   1.082       .  S
C1868      C1869   1.416       .  A
C1869      C1876   1.517       .  S
C1869      C1870   1.403       .  A
C1870      C1871   1.408       .  A
C1870      H1875   1.082       .  S
C1871      C1872   1.426       .  A
C1872      C1873   1.516       .  S
C1873      F1877   1.385       .  S
C1873      F1878   1.372       .  S
C1873      F1879   1.379       .  S
C1876      F1880   1.383       .  S
C1876      F1881   1.382       .  S
C1876      F1882   1.385       .  S
C1883      C1884   1.422       .  A
C1883      C1888   1.404       .  A
C1883      H1890   1.077       .  S
C1884      C1885   1.437       .  A
C1885      C1892   1.520   1_556  S
C1885      C1886   1.418   1_556  A
C1886      C1887   1.399   1_554  A
C1886      H1891   1.083       .  S
C1887      C1888   1.407       .  A
C1888      C1889   1.523       .  S
C1889      F1893   1.385       .  S
C1889      F1894   1.382       .  S
C1889      F1895   1.383       .  S
C1892      F1896   1.382       .  S
C1892      F1897   1.382       .  S
C1892      F1898   1.385       .  S
C1899      C1900   1.406       .  A
C1899      C1904   1.414       .  A
C1899      H1906   1.083       .  S
C1900      C1901   1.435       .  A
C1901      C1908   1.529       .  S
C1901      C1902   1.406       .  A
C1902      C1903   1.396       .  A
C1902      H1907   1.084       .  S
C1903      C1904   1.414       .  A
C1904      C1905   1.515   1_565  S
C1905      F1909   1.385       .  S
C1905      F1910   1.382       .  S
C1905      F1911   1.384       .  S
C1908      F1912   1.385       .  S
C1908      F1913   1.381       .  S
C1908      F1914   1.382       .  S
C1915      C1916   1.399       .  A
C1915      C1920   1.429   1_565  A
C1915      H1922   1.082       .  S
C1916      C1917   1.413       .  A
C1917      C1924   1.521       .  S
C1917      C1918   1.410       .  A
C1918      C1919   1.430   1_565  A
C1918      H1923   1.078       .  S
C1919      C1920   1.459       .  A
C1920      C1921   1.530       .  S
C1921      F1925   1.386       .  S
C1921      F1926   1.372       .  S
C1921      F1927   1.375       .  S
C1924      F1928   1.384   1_556  S
C1924      F1929   1.376       .  S
C1924      F1930   1.384       .  S
C1931      C1932   1.417       .  A
C1931      C1936   1.414       .  A
C1931      H1938   1.075       .  S
C1932      C1933   1.444       .  A
C1933      C1940   1.532       .  S
C1933      C1934   1.407       .  A
C1934      C1935   1.392       .  A
C1934      H1939   1.085       .  S
C1935      C1936   1.411       .  A
C1936      C1937   1.518   1_554  S
C1937      F1941   1.385       .  S
C1937      F1942   1.383       .  S
C1937      F1943   1.382       .  S
C1940      F1944   1.374       .  S
C1940      F1945   1.385       .  S
C1940      F1946   1.383       .  S
C1947      C1948   1.401       .  A
C1947      C1952   1.416       .  A
C1947      H1954   1.080       .  S
C1948      C1949   1.417       .  A
C1949      C1956   1.517       .  S
C1949      C1950   1.405       .  A
C1950      C1951   1.409       .  A
C1950      H1955   1.083   1_565  S
C1951      C1952   1.433       .  A
C1952      C1953   1.517       .  S
C1953      F1957   1.385       .  S
C1953      F1958   1.382       .  S
C1953      F1959   1.382   1_565  S
C1956      F1960   1.383       .  S
C1956      F1961   1.381       .  S
C1956      F1962   1.384   1_565  S
C1963      C1964   1.407       .  A
C1963      C1968   1.412       .  A
C1963      H1970   1.079       .  S
C1964      C1965   1.423       .  A
C1965      C1972   1.517   1_655  S
C1965      C1966   1.411       .  A
C1966      C1967   1.402       .  A
C1966      H1971   1.083       .  S
C1967      C1968   1.417       .  A
C1968      C1969   1.518       .  S
C1969      F1973   1.385       .  S
C1969      F1974   1.381       .  S
C1969      F1975   1.383       .  S
C1972      F1976   1.378       .  S
C1972      F1977   1.382   1_455  S
C1972      F1978   1.385       .  S
C1979      C1980   1.434   1_465  A
C1979      C1984   1.411   1_455  A
C1979      H1986   1.079       .  S
C1980      C1981   1.463       .  A
C1981      C1988   1.531       .  S
C1981      C1982   1.426   1_545  A
C1982      C1983   1.398       .  A
C1982      H1987   1.080       .  S
C1983      C1984   1.405       .  A
C1984      C1985   1.512   1_655  S
C1985      F1989   1.385       .  S
C1985      F1990   1.382       .  S
C1985      F1991   1.380       .  S
C1988      F1992   1.379   1_554  S
C1988      F1993   1.371       .  S
C1988      F1994   1.386       .  S
C1995      C1996   1.401       .  A
C1995      C2000   1.413       .  A
C1995      H2002   1.081       .  S
C1996      C1997   1.420       .  A
C1997      C2004   1.520       .  S
C1997      C1998   1.409       .  A
C1998      C1999   1.407       .  A
C1998      H2003   1.084       .  S
C1999      C2000   1.426       .  A
C2000      C2001   1.520       .  S
C2001      F2005   1.384       .  S
C2001      F2006   1.383       .  S
C2001      F2007   1.381       .  S
C2004      F2008   1.383       .  S
C2004      F2009   1.381       .  S
C2004      F2010   1.384       .  S
C2011      C2012   1.391       .  A
C2011      C2016   1.408       .  A
C2011      H2018   1.086       .  S
C2012      C2013   1.411   1_556  A
C2013      C2020   1.516       .  S
C2013      C2014   1.418   1_554  A
C2014      C2015   1.417       .  A
C2014      H2019   1.075   1_556  S
C2015      C2016   1.447       .  A
C2016      C2017   1.532       .  S
C2017      F2021   1.384       .  S
C2017      F2022   1.385       .  S
C2017      F2023   1.372       .  S
C2020      F2024   1.383       .  S
C2020      F2025   1.383       .  S
C2020      F2026   1.384       .  S
C2027      C2028   1.404       .  A
C2027      C2032   1.408       .  A
C2027      H2034   1.082       .  S
C2028      C2029   1.415       .  A
C2029      C2036   1.516   1_655  S
C2029      C2030   1.415       .  A
C2030      C2031   1.406       .  A
C2030      H2035   1.083   1_655  S
C2031      C2032   1.415       .  A
C2032      C2033   1.519       .  S
C2033      F2037   1.384       .  S
C2033      F2038   1.383       .  S
C2033      F2039   1.383       .  S
C2036      F2040   1.383       .  S
C2036      F2041   1.383   1_455  S
C2036      F2042   1.384       .  S
C2043      C2044   1.402       .  A
C2043      C2048   1.418   1_655  A
C2043      H2050   1.085       .  S
C2044      C2045   1.426       .  A
C2045      C2052   1.518       .  S
C2045      C2046   1.426       .  A
C2046      C2047   1.422   1_655  A
C2046      H2051   1.079       .  S
C2047      C2048   1.456       .  A
C2048      C2049   1.530   1_556  S
C2049      F2053   1.365       .  S
C2049      F2054   1.382       .  S
C2049      F2055   1.386   1_554  S
C2052      F2056   1.381       .  S
C2052      F2057   1.378       .  S
C2052      F2058   1.385       .  S
C2059      C2060   1.402       .  A
C2059      C2064   1.408       .  A
C2059      H2066   1.083       .  S
C2060      C2061   1.421       .  A
C2061      C2068   1.519       .  S
C2061      C2062   1.413       .  A
C2062      C2063   1.405       .  A
C2062      H2067   1.082       .  S
C2063      C2064   1.419       .  A
C2064      C2065   1.513       .  S
C2065      F2069   1.384       .  S
C2065      F2070   1.379       .  S
C2065      F2071   1.382       .  S
C2068      F2072   1.380       .  S
C2068      F2073   1.383       .  S
C2068      F2074   1.384       .  S
C2075      C2076   1.405       .  A
C2075      C2080   1.415       .  A
C2075      H2082   1.083       .  S
C2076      C2077   1.418       .  A
C2077      C2084   1.515       .  S
C2077      C2078   1.410       .  A
C2078      C2079   1.406       .  A
C2078      H2083   1.083       .  S
C2079      C2080   1.423       .  A
C2080      C2081   1.517       .  S
C2081      F2085   1.385       .  S
C2081      F2086   1.381       .  S
C2081      F2087   1.383       .  S
C2084      F2088   1.380       .  S
C2084      F2089   1.382       .  S
C2084      F2090   1.385       .  S
C2091      C2092   1.406       .  A
C2091      C2096   1.412       .  A
C2091      H2098   1.082       .  S
C2092      C2093   1.419       .  A
C2093      C2100   1.515       .  S
C2093      C2094   1.411       .  A
C2094      C2095   1.405       .  A
C2094      H2099   1.083       .  S
C2095      C2096   1.420       .  A
C2096      C2097   1.518       .  S
C2097      F2101   1.385       .  S
C2097      F2102   1.380       .  S
C2097      F2103   1.384       .  S
C2100      F2104   1.379       .  S
C2100      F2105   1.382       .  S
C2100      F2106   1.385       .  S
C2107      C2108   1.419       .  A
C2107      C2112   1.419       .  A
C2107      H2114   1.078       .  S
C2108      C2109   1.446       .  A
C2109      C2116   1.533   1_455  S
C2109      C2110   1.418       .  A
C2110      C2111   1.411       .  A
C2110      H2115   1.084       .  S
C2111      C2112   1.434       .  A
C2112      C2113   1.529       .  S
C2113      F2117   1.382       .  S
C2113      F2118   1.378       .  S
C2113      F2119   1.386       .  S
C2116      F2120   1.380       .  S
C2116      F2121   1.367       .  S
C2116      F2122   1.385       .  S
