geometry optimzed in LAMMPS
_audit_creation_date              2020-11-30 
_audit_creation_method            'lammps2cif' 
_symmetry_space_group_name_H-M    'P1' 
_symmetry_Int_Tables_number       1 
_symmetry_cell_setting            triclinic 
loop_ 
_symmetry_equiv_pos_as_xyz 
  x,y,z 
_cell_length_a                    38.91381205 
_cell_length_b                    38.180309012699745 
_cell_length_c                    29.605769061011877 
_cell_angle_alpha                 89.358023701583 
_cell_angle_beta                  90.45841551766725 
_cell_angle_gamma                 89.96552202391435 
loop_ 
_atom_site_label 
_atom_site_type_symbol 
_atom_site_fract_x 
_atom_site_fract_y 
_atom_site_fract_z 
_atom_site_charge 
O1          O  0.25942215  0.18603722  0.37278247    -0.86900
O2          O  0.26494394  0.18801175  0.63204723    -0.87100
O3          O  0.32458836  0.15477080  0.50400056    -0.88700
O4          O  0.21578866  0.14333570  0.51195442    -0.87500
O5          O  0.17029625  0.18149903  0.50938386    -0.87100
O6          O  0.36184994  0.20127495  0.50597685    -0.88500
O7          O  0.26926664  0.14875471  0.57444555    -0.86900
O8          O  0.26414315  0.14632826  0.43145581    -0.86500
Zr9        Zr  0.26688069  0.17816206  0.50189041     2.84300
O10         O  0.23041125  0.20936786  0.54903077    -1.08500
O11         O  0.29750287  0.21537337  0.45371133    -1.09200
C12         C  0.26040073  0.15409560  0.38920522     1.06200
C13         C  0.26788294  0.15638508  0.61658354     1.06100
C14         C  0.35470186  0.16843592  0.50731379     1.09100
C15         C  0.18364118  0.15072169  0.51413427     1.06900
H16         H  0.31366125  0.20231356  0.56708767     0.32500
O17         O  0.29779121  0.21579628  0.54859885    -1.29500
H18         H  0.21467010  0.19282186  0.43808766     0.32100
O19         O  0.22869031  0.20898385  0.45500077    -1.31100
O20         O  0.25919302  0.30680657  0.63025762    -0.86900
O21         O  0.25584146  0.30667663  0.37037984    -0.88400
O22         O  0.35753116  0.25554668  0.57306607    -0.87000
O23         O  0.16492400  0.23925787  0.57399213    -0.87000
O24         O  0.16251251  0.23977286  0.43133979    -0.86700
O25         O  0.35721881  0.25609911  0.42877941    -0.86500
O26         O  0.30428442  0.35144133  0.50473971    -0.86900
O27         O  0.19555630  0.33955808  0.50488997    -0.86400
O28         O  0.34939706  0.31283191  0.50821943    -0.87400
O29         O  0.15819562  0.29330870  0.50840806    -0.86600
O30         O  0.31964282  0.25015365  0.63178655    -0.87000
O31         O  0.31788591  0.24920865  0.37115109    -0.86700
O32         O  0.20001218  0.24256200  0.37215053    -0.86400
O33         O  0.20349107  0.24249838  0.63250633    -0.86800
O34         O  0.25341195  0.34608066  0.57166129    -0.87100
O35         O  0.25113596  0.34603682  0.42783204    -0.88400
Zr36       Zr  0.26130058  0.24722108  0.59673154     2.83100
Zr37       Zr  0.25920054  0.24661761  0.40567709     2.83500
Zr38       Zr  0.32768228  0.25378608  0.50076367     2.84100
Zr39       Zr  0.19293042  0.24078420  0.50224758     2.83400
Zr40       Zr  0.25326106  0.31596719  0.50004246     2.84200
O41         O  0.22210667  0.27855166  0.45322338    -1.09000
O42         O  0.29104370  0.28501671  0.54730452    -1.08500
C43         C  0.25625116  0.33855759  0.61413448     1.06200
C44         C  0.25318321  0.33856267  0.38557921     1.08800
C45         C  0.35048097  0.25346060  0.61557076     1.06300
C46         C  0.17240646  0.23960541  0.61622804     1.06700
C47         C  0.16917384  0.23990765  0.38892937     1.06300
C48         C  0.34914009  0.25349277  0.38658293     1.05800
C49         C  0.33625348  0.34376050  0.50948962     1.06300
C50         C  0.16535978  0.32623005  0.50932383     1.05800
H51         H  0.30369169  0.30124668  0.43508690     0.32500
O52         O  0.29041644  0.28504812  0.45305692    -1.30100
H53         H  0.20829528  0.29209025  0.56728194     0.32500
O54         O  0.22359532  0.27867892  0.54875815    -1.31500
N55         N  0.46020427  0.00375048  0.55044948    -0.37000
N56         N  0.01700030  0.05175602  0.57152807    -0.57600
N57         N  0.06049932  0.99139253  0.56490546    -0.37000
N58         N  0.00446101  0.44223093  0.57240792    -0.57600
C59         C  0.44453066  0.03430492  0.55890758     0.26600
C60         C  0.43719765  0.47765749  0.55762477     0.26600
C61         C  0.08415521  0.01643789  0.57306351     0.26600
C62         C  0.07832320  0.46130868  0.57200181     0.26600
C63         C  0.49318438  0.07446978  0.54407421     0.35200
C64         C  0.04677342  0.06844837  0.56271436     0.35200
C65         C  0.47374936  0.42798362  0.53583895     0.35200
C66         C  0.02970998  0.42000341  0.56059552     0.35200
C67         C  0.41115799  0.02826698  0.57315364    -0.22300
C68         C  0.40712521  0.49200291  0.57409400    -0.22300
C69         C  0.11505197  0.00092406  0.58570485    -0.22300
C70         C  0.11258854  0.46853086  0.58118895    -0.22300
C71         C  0.50692140  0.10650802  0.53134259    -0.23400
C72         C  0.04059171  0.10327262  0.55147532    -0.23400
C73         C  0.47902980  0.39596754  0.51536138    -0.23400
C74         C  0.01585726  0.38889377  0.54501387    -0.23400
C75         C  0.45796365  0.06720804  0.54729532    -0.18700
C76         C  0.44160865  0.44246037  0.54606656    -0.18700
C77         C  0.06511628  0.42755094  0.56345239    -0.18700
C78         C  0.07937194  0.05231154  0.56320081    -0.18700
H79         H  0.39175812  0.04760988  0.58078042     0.14200
H80         H  0.38398872  0.47821993  0.58381460     0.14200
H81         H  0.13928231  0.01360828  0.59285692     0.14200
H82         H  0.13309862  0.44982044  0.58707581     0.14200
H83         H  0.49322119  0.13020589  0.52195397     0.12500
H84         H  0.05917503  0.12340017  0.54331602     0.12500
H85         H  0.45977274  0.37776632  0.50340384     0.12500
H86         H  0.02949856  0.36611197  0.53315448     0.12500
H87         H  0.48267286  0.00120386  0.53217088     0.25700
H88         H  0.03747517  0.99524343  0.54762291     0.25700
O89         O  0.48703939  0.44042656  0.86473487    -0.86900
O90         O  0.48798162  0.43667707  0.12351876    -0.87100
O91         O  0.03733047  0.39760228  0.99342278    -0.88700
O92         O  0.42794525  0.40268067  0.98563212    -0.87500
O93         O  0.38752968  0.44617063  0.99022506    -0.87100
O94         O  0.08045726  0.43826946  0.99502465    -0.88500
O95         O  0.48572233  0.39778146  0.06529637    -0.86900
O96         O  0.48669918  0.40056504  0.92301212    -0.86500
Zr97       Zr  0.48439145  0.42974289  0.99443647     2.84300
O98         O  0.45146763  0.46378212  0.04287158    -1.08500
O99         O  0.01916748  0.46318987  0.95314198    -1.09200
C100        C  0.48725486  0.40843769  0.88077439     1.06200
C101        C  0.48697794  0.40480892  0.10765725     1.06100
C102        C  0.06909848  0.40692098  0.99133534     1.09100
C103        C  0.39678645  0.41427040  0.98436480     1.06900
H104        H  0.03360464  0.44553713  0.06567881     0.32500
O105        O  0.01960486  0.46140445  0.04772282    -1.29500
H106        H  0.43666133  0.45152636  0.92838444     0.32100
O107        O  0.45135361  0.46566072  0.94716273    -1.31100
O108        O  0.49071321  0.05885000  0.12591669    -0.86900
O109        O  0.48844125  0.06172496  0.86764730    -0.88400
O110        O  0.08443735  0.49224617  0.07265984    -0.87000
O111        O  0.38987040  0.50124013  0.06790789    -0.87000
O112        O  0.38807047  0.00259984  0.92638138    -0.86700
O113        O  0.08195932  0.99265927  0.92134608    -0.86500
O114        O  0.04634149  0.09363061  0.99054993    -0.86900
O115        O  0.43697244  0.09979979  0.98881531    -0.86400
O116        O  0.08548661  0.04871122  0.98926493    -0.87400
O117        O  0.39365770  0.05918045  0.99133793    -0.86600
O118        O  0.04540900  0.49681556  0.13017613    -0.87000
O119        O  0.04273455  0.99930449  0.86357273    -0.86700
O120        O  0.42666482  0.00197916  0.86783448    -0.86400
O121        O  0.42988889  0.49925371  0.12551718    -0.86800
O122        O  0.49154449  0.09883749  0.06783284    -0.87100
O123        O  0.49075772  0.10009382  0.92653835    -0.88400
Zr124      Zr  0.48777344  0.49764732  0.08990407     2.83100
Zr125      Zr  0.48614251  0.00070973  0.90093420     2.83500
Zr126      Zr  0.05474118  0.49502431  0.00050715     2.84100
Zr127      Zr  0.41889561  0.50032065  0.99526782     2.83400
Zr128      Zr  0.49083205  0.06859892  0.99677075     2.84200
O129        O  0.45447954  0.03590087  0.95030183    -1.09000
O130        O  0.02238880  0.03170808  0.04207762    -1.08500
C131        C  0.49145629  0.09095870  0.11025430     1.06200
C132        C  0.49026189  0.09331610  0.88414514     1.08800
C133        C  0.07668426  0.49421343  0.11481691     1.06300
C134        C  0.39845539  0.50113624  0.11015232     1.06700
C135        C  0.39556756  0.00261846  0.88401847     1.06300
C136        C  0.07395129  0.99548078  0.87900535     1.05800
C137        C  0.07692907  0.08119010  0.98723684     1.06300
C138        C  0.40520317  0.09059483  0.98678666     1.05800
H139        H  0.03634318  0.04660538  0.92894062     0.32500
O140        O  0.02127031  0.03262133  0.94740092    -1.30100
H141        H  0.44123108  0.05105239  0.06189768     0.32500
O142        O  0.45520601  0.03558137  0.04406042    -1.31500
N143        N  0.18279783  0.24682428  0.93303944    -0.37000
N144        N  0.23297774  0.30220255  0.92659726    -0.57600
N145        N  0.28844593  0.25219924  0.92949310    -0.37000
N146        N  0.23807274  0.19684021  0.93578663    -0.57600
C147        C  0.16384090  0.27460686  0.94533680     0.26600
C148        C  0.16655103  0.21813605  0.94900302     0.26600
C149        C  0.30557790  0.28192232  0.93937011     0.26600
C150        C  0.30802648  0.22528633  0.94476146     0.26600
C151        C  0.20406908  0.32133141  0.92150230     0.35200
C152        C  0.25941468  0.32438779  0.91987452     0.35200
C153        C  0.21141330  0.17465851  0.93191559     0.35200
C154        C  0.26658434  0.17742682  0.93077115     0.35200
C155        C  0.13493554  0.26340004  0.96861399    -0.22300
C156        C  0.13646041  0.22762651  0.97045754    -0.22300
C157        C  0.33694581  0.27372375  0.95951986    -0.22300
C158        C  0.33838665  0.23795129  0.96317455    -0.22300
C159        C  0.21209525  0.35563889  0.91032720    -0.23400
C160        C  0.24726947  0.35761868  0.90949365    -0.23400
C161        C  0.22288025  0.14101216  0.92349442    -0.23400
C162        C  0.25807252  0.14280375  0.92251655    -0.23400
C163        C  0.17136136  0.30974266  0.93489248    -0.18700
C164        C  0.17776619  0.18354234  0.94358081    -0.18700
C165        C  0.29963883  0.18953166  0.94143339    -0.18700
C166        C  0.29374545  0.31628442  0.93075053    -0.18700
H167        H  0.11471554  0.27927929  0.98271880     0.14200
H168        H  0.11768763  0.21063187  0.98620501     0.14200
H169        H  0.35663081  0.29161666  0.97103910     0.14200
H170        H  0.35933953  0.22302841  0.97805244     0.14200
H171        H  0.19446219  0.37735222  0.90648608     0.12500
H172        H  0.26213012  0.38119691  0.90487155     0.12500
H173        H  0.20760768  0.11743318  0.92075718     0.12500
H174        H  0.27544059  0.12085964  0.91899538     0.12500
H175        H  0.20383026  0.24719366  0.91154116     0.25700
H176        H  0.26599925  0.25028049  0.91036884     0.25700
C177        C  0.04146042  0.24503767  0.27952336     0.86100
C178        C  0.03778619  0.21533004  0.24588510    -0.54200
C179        C  0.50694834  0.21580148  0.22314629     0.09000
C180        C  0.48328684  0.24792112  0.23271975     0.19900
C181        C  0.03620879  0.27911771  0.25201019    -0.54900
C182        C  0.50582659  0.28152454  0.22705319     0.09100
C183        C  0.50717815  0.24533276  0.30897703    -0.54400
C184        C  0.47702050  0.24596403  0.28421363     0.09700
H185        H  0.05681908  0.19463375  0.24305007     0.14200
H186        H  0.45925518  0.24862695  0.21232754    -0.00100
H187        H  0.05448321  0.30055341  0.25288676     0.14500
H188        H  0.50702934  0.24583862  0.34559784     0.14300
C189        C  0.20807602  0.50019625  0.21769741     0.86100
C190        C  0.21195417  0.46782279  0.24830302    -0.54200
C191        C  0.24159140  0.46594110  0.27292860     0.09000
C192        C  0.26538343  0.49836834  0.26571639     0.19900
C193        C  0.21235945  0.03374255  0.24606804    -0.54900
C194        C  0.24195201  0.03282291  0.27115568     0.09100
C195        C  0.24145278  0.50141541  0.18939171    -0.54400
C196        C  0.27154458  0.49954067  0.21409868     0.09700
H197        H  0.19259219  0.44734399  0.24984272     0.14200
H198        H  0.28936708  0.49774203  0.28610266    -0.00100
H199        H  0.19528444  0.05587359  0.24910520     0.14500
H200        H  0.24149880  0.50482372  0.15302023     0.14300
C201        C  0.04472797  0.24998450  0.71992466     0.86100
C202        C  0.04065088  0.28421498  0.74611535    -0.54200
C203        C  0.51096169  0.28569104  0.76836514     0.09000
C204        C  0.48730712  0.25302295  0.76349247     0.19900
C205        C  0.03893159  0.22050819  0.75397069    -0.54900
C206        C  0.50943500  0.22041543  0.77633300     0.09100
C207        C  0.51254731  0.24746322  0.68929276    -0.54400
C208        C  0.48204255  0.25056262  0.71214471     0.09700
H209        H  0.06005474  0.30459813  0.74622508     0.14200
H210        H  0.46279838  0.25474057  0.78225985    -0.00100
H211        H  0.05684702  0.19886384  0.75848254     0.14500
H212        H  0.51315462  0.24504106  0.65293411     0.14300
C213        C  0.20321392  0.49695641  0.77543367     0.86100
C214        C  0.20861778  0.02933161  0.74303837    -0.54200
C215        C  0.24025302  0.03109595  0.72315936     0.09000
C216        C  0.26190300  0.49761639  0.73181527     0.19900
C217        C  0.20811127  0.46593768  0.74377053    -0.54900
C218        C  0.23870398  0.46526295  0.72147503     0.09100
C219        C  0.23568146  0.49706299  0.80608978    -0.54400
C220        C  0.26631597  0.49649181  0.78341612     0.09700
H221        H  0.19059039  0.05079771  0.73984436     0.14200
H222        H  0.28690654  0.49752729  0.71414452    -0.00100
H223        H  0.18926736  0.44507283  0.74083516     0.14500
H224        H  0.23432316  0.49791077  0.84265165     0.14300
C225        C  0.13464601  0.47095508  0.13563733    -0.20700
C226        C  0.10731855  0.49342739  0.14619593    -0.07300
C227        C  0.11459605  0.02559893  0.16825044     0.13600
C228        C  0.14643625  0.02663165  0.19156344    -0.20800
C229        C  0.17338492  0.49854481  0.19079362    -0.07300
C230        C  0.16713684  0.47287331  0.15699690     0.13600
C231        C  0.19423146  0.44713489  0.14213243    -0.24100
H232        H  0.13071127  0.45207311  0.10919156     0.14900
H233        H  0.14965375  0.04783850  0.21473942     0.14900
C234        C  0.08991418  0.05546064  0.17547158    -0.24100
H235        H  0.18326039  0.42682567  0.11975355     0.05100
H236        H  0.20585370  0.43307588  0.17137886     0.08300
H237        H  0.21434169  0.46062914  0.12232262     0.08300
H238        H  0.06644467  0.05396065  0.15428727     0.08300
H239        H  0.10279178  0.08062546  0.16705850     0.08300
H240        H  0.08211110  0.05585237  0.21145197     0.05100
C241        C  0.36273111  0.47623697  0.17335014    -0.20700
C242        C  0.36908820  0.50361338  0.14239434    -0.07300
C243        C  0.34833757  0.03352630  0.14405822     0.13600
C244        C  0.31600466  0.03149593  0.16499398    -0.20800
C245        C  0.30643796  0.50106798  0.19225427    -0.07300
C246        C  0.33187083  0.47468419  0.19843942     0.13600
C247        C  0.32583647  0.44365079  0.22918507    -0.24100
H248        H  0.38129147  0.45514918  0.17641047     0.14900
H249        H  0.29847937  0.05341772  0.16197050     0.14900
C250        C  0.35893009  0.06724541  0.12136525    -0.24100
H251        H  0.34732689  0.42453925  0.22785434     0.05100
H252        H  0.30193139  0.42996485  0.21886748     0.08300
H253        H  0.32368480  0.45225944  0.26465381     0.08300
H254        H  0.36365732  0.06264932  0.08512847     0.08300
H255        H  0.38289662  0.07710884  0.13738053     0.08300
H256        H  0.33888642  0.08782539  0.12415465     0.05100
C257        C  0.97904306  0.31092841  0.16042619    -0.20700
C258        C  0.49630552  0.31398702  0.19970146    -0.07300
C259        C  0.50307651  0.34873853  0.21455048     0.13600
C260        C  0.49975683  0.37743836  0.18419266    -0.20800
C261        C  0.48815879  0.37330972  0.13947208    -0.07300
C262        C  0.97325896  0.34014201  0.13176731     0.13600
C263        C  0.95560000  0.33346775  0.08703547    -0.24100
H264        H  0.97179135  0.28523555  0.14884325     0.14900
H265        H  0.50623391  0.40342186  0.19591785     0.14900
C266        C  0.51212443  0.35709814  0.26285871    -0.24100
H267        H  0.94597610  0.30615335  0.08467443     0.05100
H268        H  0.97382314  0.33726243  0.05877840     0.08300
H269        H  0.93311444  0.35116862  0.08284610     0.08300
H270        H  0.53924361  0.36599576  0.26502110     0.08300
H271        H  0.50812050  0.33465292  0.28624291     0.08300
H272        H  0.49520075  0.37842176  0.27490727     0.05100
C273        C  0.49709269  0.15593642  0.12117160    -0.20700
C274        C  0.49278016  0.12234956  0.14132385    -0.07300
C275        C  0.99415439  0.12019294  0.18750709     0.13600
C276        C  0.99760329  0.15119748  0.21294191    -0.20800
C277        C  0.49869757  0.18494741  0.19395606    -0.07300
C278        C  0.50110634  0.18659674  0.14653668     0.13600
C279        C  0.51043696  0.21973664  0.12144505    -0.24100
H280        H  0.49905957  0.15857458  0.08481365     0.14900
H281        H  0.99970388  0.14929901  0.24941879     0.14900
C282        C  0.99310473  0.08561882  0.21242718    -0.24100
H283        H  0.53342401  0.21495226  0.10038151     0.05100
H284        H  0.51701405  0.24149645  0.14424504     0.08300
H285        H  0.48875910  0.22788253  0.09908954     0.08300
H286        H  0.01502974  0.06901355  0.20216945     0.08300
H287        H  0.96849656  0.07206102  0.20506955     0.08300
H288        H  0.99495635  0.08900588  0.24957832     0.05100
C289        C  0.08833674  0.36067026  0.94095131    -0.20700
C290        C  0.09451100  0.38045691  0.97980805    -0.07300
C291        C  0.12650606  0.37813130  0.00246253     0.13600
C292        C  0.15143795  0.35545240  0.98606846    -0.20800
C293        C  0.14542249  0.33603141  0.94699215    -0.07300
C294        C  0.11374635  0.33877665  0.92375462     0.13600
C295        C  0.10704360  0.31918150  0.88061924    -0.24100
H296        H  0.06405020  0.36343628  0.92301561     0.14900
H297        H  0.17574636  0.35256871  0.00391142     0.14900
C298        C  0.13437233  0.39898343  0.04415064    -0.24100
H299        H  0.08128004  0.32537815  0.86616159     0.05100
H300        H  0.10817593  0.29051590  0.88686565     0.08300
H301        H  0.12666763  0.32650862  0.85519513     0.08300
H302        H  0.11437134  0.39413057  0.07001177     0.08300
H303        H  0.13540830  0.42729420  0.03551629     0.08300
H304        H  0.15966460  0.39166944  0.05909874     0.05100
C305        C  0.36764101  0.38026268  0.92580783    -0.20700
C306        C  0.36965980  0.38996332  0.97129953    -0.07300
C307        C  0.34444885  0.37870922  0.00196354     0.13600
C308        C  0.31850812  0.35627007  0.98680706    -0.20800
C309        C  0.31739039  0.34521294  0.94176147    -0.07300
C310        C  0.34164091  0.35797638  0.91051829     0.13600
C311        C  0.34086981  0.34842443  0.86127337    -0.24100
H312        H  0.38633136  0.39037665  0.90201155     0.14900
H313        H  0.29977388  0.34612519  0.01049149     0.14900
C314        C  0.34556229  0.38953889  0.05071497    -0.24100
H315        H  0.36503201  0.33467395  0.85255281     0.05100
H316        H  0.33871404  0.37261865  0.84026298     0.08300
H317        H  0.31890895  0.33124082  0.85249050     0.08300
H318        H  0.34340036  0.41845937  0.05297607     0.08300
H319        H  0.37021093  0.38094392  0.06643372     0.08300
H320        H  0.32418345  0.37772433  0.07029060     0.05100
C321        C  0.35450848  0.16029200  0.92489248    -0.20700
C322        C  0.32632149  0.16365432  0.95355748    -0.07300
C323        C  0.32510046  0.14457692  0.99465415     0.13600
C324        C  0.35158715  0.12111355  0.00495308    -0.20800
C325        C  0.37984908  0.11778105  0.97645671    -0.07300
C326        C  0.38180157  0.13808037  0.93636777     0.13600
C327        C  0.41225400  0.13613211  0.90538462    -0.24100
H328        H  0.35538261  0.17573313  0.89396182     0.14900
H329        H  0.35044334  0.10566315  0.03563404     0.14900
C330        C  0.29665162  0.14966792  0.02830663    -0.24100
H331        H  0.40841421  0.15217324  0.87421251     0.05100
H332        H  0.41681107  0.10866873  0.89525675     0.08300
H333        H  0.43540945  0.14617195  0.92306392     0.08300
H334        H  0.27158940  0.14174469  0.01364922     0.08300
H335        H  0.29542780  0.17761802  0.03811886     0.08300
H336        H  0.30090457  0.13372936  0.05948592     0.05100
C337        C  0.12509445  0.11853942  0.01036344    -0.20700
C338        C  0.10380268  0.10593496  0.97607581    -0.07300
C339        C  0.10791081  0.11732739  0.93097342     0.13600
C340        C  0.13288072  0.14229585  0.92116692    -0.20800
C341        C  0.15388438  0.15537070  0.95546626    -0.07300
C342        C  0.15031103  0.14340736  0.00056824     0.13600
C343        C  0.17195514  0.15698116  0.03902193    -0.24100
H344        H  0.12166357  0.10938167  0.04484759     0.14900
H345        H  0.13592518  0.15191048  0.88682053     0.14900
C346        C  0.08617600  0.10289671  0.89327240    -0.24100
H347        H  0.18598818  0.13485985  0.05538873     0.05100
H348        H  0.15506591  0.16937544  0.06434475     0.08300
H349        H  0.19118976  0.17665958  0.02811824     0.08300
H350        H  0.05879601  0.10802300  0.90014122     0.04100
H351        H  0.09032130  0.07421975  0.89106849     0.08300
H352        H  0.09250091  0.11501418  0.86008101     0.05100
C353        C  0.35392340  0.97126042  0.83383318    -0.20700
C354        C  0.36515838  0.00289418  0.85275842    -0.07300
C355        C  0.34359053  0.03271637  0.84852746     0.13600
C356        C  0.32529868  0.52158355  0.79485456    -0.20800
C357        C  0.30081027  0.49584298  0.80620636    -0.07300
C358        C  0.32183097  0.96876775  0.81131756     0.13600
C359        C  0.31061396  0.93412331  0.79248631    -0.24100
H360        H  0.36978596  0.94809269  0.83807121     0.14900
H361        H  0.31858805  0.54141807  0.76982050     0.14900
C362        C  0.38239417  0.55193981  0.80521230    -0.24100
H363        H  0.32973882  0.91316344  0.79973739     0.05100
H364        H  0.30754862  0.93645733  0.75531097     0.08300
H365        H  0.26344863  0.44845872  0.86643630     0.08300
H366        H  0.37877857  0.07568429  0.85113254     0.08300
H367        H  0.38806228  0.56748389  0.83585513     0.08300
H368        H  0.37165843  0.56990689  0.77891052     0.05100
C369        C  0.13907363  0.01504645  0.78444187    -0.20700
C370        C  0.16898817  0.49457115  0.80257422    -0.07300
C371        C  0.16253301  0.46704208  0.83465584     0.13600
C372        C  0.13226022  0.46733023  0.86065741    -0.20800
C373        C  0.10390700  0.99370289  0.84722312    -0.07300
C374        C  0.10738506  0.01465355  0.80778845     0.13600
C375        C  0.07811299  0.03702787  0.79035054    -0.24100
H376        H  0.14059779  0.03107397  0.75430979     0.14900
H377        H  0.12831903  0.44683206  0.88577940     0.14900
C378        C  0.18660804  0.43666564  0.84358662    -0.24100
H379        H  0.08536747  0.05224325  0.75968381     0.05100
H380        H  0.08319864  0.56303043  0.84890770     0.08300
H381        H  0.05597380  0.02013245  0.78122919     0.08300
H382        H  0.20938706  0.43600507  0.82178719     0.08300
H383        H  0.17361900  0.91609702  0.84906202     0.08300
H384        H  0.19575255  0.43755624  0.87916939     0.05100
C385        C  0.00712592  0.15624719  0.87317726    -0.20700
C386        C  0.49311033  0.12564047  0.85451523    -0.07300
C387        C  0.48144119  0.12816538  0.80915348     0.13600
C388        C  0.48441917  0.16044190  0.78539275    -0.20800
C389        C  0.49905198  0.19026518  0.80552880    -0.07300
C390        C  0.01061815  0.18821641  0.84977899     0.13600
C391        C  0.02861693  0.21831560  0.87249874    -0.24100
H392        H  0.01639819  0.15499529  0.90774884     0.14900
H393        H  0.47654916  0.16208174  0.75022860     0.14900
C394        C  0.46582368  0.09724106  0.78559808    -0.24100
H395        H  0.03725061  0.21135655  0.90730774     0.05100
H396        H  0.01087804  0.24087054  0.87471416     0.08300
H397        H  0.05163620  0.22616427  0.85291098     0.08300
H398        H  0.44317043  0.08769630  0.80469851     0.08300
H399        H  0.48513388  0.07595493  0.78306802     0.08300
H400        H  0.45715000  0.10415006  0.75079398     0.05100
C401        C  0.50389408  0.38182111  0.80667116    -0.20700
C402        C  0.48929553  0.37761701  0.84960264    -0.07300
C403        C  0.98324464  0.34276872  0.86796061     0.13600
C404        C  0.98760865  0.31490083  0.83788769    -0.20800
C405        C  0.50138707  0.31845902  0.79323363    -0.07300
C406        C  0.50931894  0.35309590  0.77795569     0.13600
C407        C  0.52213243  0.36154749  0.73112354    -0.24100
H408        H  0.51138526  0.40778862  0.79530718     0.14900
H409        H  0.98124902  0.28861262  0.84885155     0.14900
C410        C  0.96987002  0.33348932  0.91437591    -0.24100
H411        H  0.50532927  0.38181510  0.71523929     0.05100
H412        H  0.52167236  0.33896365  0.70818833     0.08300
H413        H  0.54873758  0.37193234  0.73320557     0.08300
H414        H  0.43777671  0.35332857  0.91002766     0.08300
H415        H  0.99005125  0.33817643  0.94032634     0.08300
H416        H  0.96268049  0.30541350  0.91741010     0.05100
C417        C  0.40825073  0.27752777  0.63241769    -0.20700
C418        C  0.38134283  0.25541150  0.64623912    -0.07300
C419        C  0.38683257  0.23363563  0.68473104     0.13600
C420        C  0.41976457  0.23266017  0.70564386    -0.20800
C421        C  0.44725400  0.25336092  0.68968177    -0.07300
C422        C  0.44053308  0.27746843  0.65395420     0.13600
C423        C  0.46628272  0.30485210  0.63966063    -0.24100
H424        H  0.40401539  0.29510715  0.60392839     0.14900
H425        H  0.42425966  0.21510514  0.73410736     0.14900
C426        C  0.35857694  0.21079009  0.70314764    -0.24100
H427        H  0.45563801  0.32262179  0.61314041     0.05100
H428        H  0.48951011  0.29289182  0.62515623     0.08300
H429        H  0.47327029  0.32103523  0.66915182     0.08300
H430        H  0.34940366  0.19246298  0.67687875     0.08300
H431        H  0.33682845  0.22739798  0.71412398     0.08300
H432        H  0.36743635  0.19504726  0.73280444     0.05100
C433        C  0.08047023  0.22594420  0.65632152    -0.20700
C434        C  0.07967404  0.24526237  0.69635593    -0.07300
C435        C  0.11211254  0.25520571  0.71546886     0.13600
C436        C  0.14217726  0.25311764  0.68912132    -0.20800
C437        C  0.14177632  0.23743597  0.64647965    -0.07300
C438        C  0.11069029  0.22132913  0.63172833     0.13600
C439        C  0.10878273  0.19806053  0.59073459    -0.24100
H440        H  0.05734098  0.21339507  0.64421528     0.14900
H441        H  0.16614285  0.26341371  0.70234925     0.14900
C442        C  0.11695742  0.26621092  0.76393416    -0.24100
H443        H  0.08431689  0.18312467  0.58927889     0.05100
H444        H  0.12997758  0.17861735  0.59197927     0.08300
H445        H  0.10999676  0.21389067  0.55915028     0.08300
H446        H  0.13813571  0.25067610  0.77963022     0.08300
H447        H  0.09424814  0.26121620  0.78524718     0.08300
H448        H  0.12393897  0.29437730  0.76518092     0.05100
C449        C  0.27359197  0.06256549  0.66281064    -0.20700
C450        C  0.25309496  0.06452099  0.70135132    -0.07300
C451        C  0.24433074  0.09851263  0.71717559     0.13600
C452        C  0.25031451  0.12819727  0.68967289    -0.20800
C453        C  0.26767520  0.12563323  0.64850307    -0.07300
C454        C  0.28164294  0.09247198  0.63674440     0.13600
C455        C  0.30532606  0.08796844  0.59701257    -0.24100
H456        H  0.28262014  0.03738826  0.65196572     0.14900
H457        H  0.24101730  0.15350525  0.70049110     0.14900
C458        C  0.23041605  0.10503577  0.76375009    -0.24100
H459        H  0.31746910  0.06162571  0.59717684     0.05100
H460        H  0.32631986  0.10763072  0.59842832     0.08300
H461        H  0.29091674  0.09058875  0.56469205     0.08300
H462        H  0.23242309  0.08180506  0.78635006     0.08300
H463        H  0.20325161  0.11380992  0.76124339     0.08300
H464        H  0.24574723  0.12590748  0.78024371     0.05100
C465        C  0.26138433  0.40326773  0.62524368    -0.20700
C466        C  0.25592824  0.36985414  0.64500927    -0.07300
C467        C  0.24868082  0.36835474  0.69191360     0.13600
C468        C  0.24515383  0.39985428  0.71626045    -0.20800
C469        C  0.24883805  0.43313388  0.69554145    -0.07300
C470        C  0.25790161  0.43450341  0.64955507     0.13600
C471        C  0.26316602  0.46877553  0.62525061    -0.24100
H472        H  0.26806482  0.40526863  0.58985460     0.14900
H473        H  0.23850180  0.39853954  0.75172502     0.14900
C474        C  0.24351762  0.33403218  0.71651655    -0.24100
H475        H  0.26651206  0.46527123  0.58835164     0.05100
H476        H  0.28698939  0.48090045  0.63834577     0.08300
H477        H  0.24072964  0.48627206  0.63017207     0.08300
H478        H  0.26731953  0.31806617  0.71487874     0.08300
H479        H  0.22171898  0.31954093  0.70114006     0.08300
H480        H  0.23759309  0.33791877  0.75276309     0.05100
C481        C  0.39167294  0.12029846  0.48338418    -0.20700
C482        C  0.38298133  0.14458522  0.51629087    -0.07300
C483        C  0.39964199  0.14423733  0.55882140     0.13600
C484        C  0.42489705  0.11918295  0.56762555    -0.20800
C485        C  0.43338858  0.09471713  0.53490623    -0.07300
C486        C  0.41708697  0.09531855  0.49205336     0.13600
C487        C  0.42565675  0.06995487  0.45509601    -0.24100
H488        H  0.37844928  0.12073452  0.45098296     0.14900
H489        H  0.43752483  0.11803284  0.60039665     0.14900
C490        C  0.38990546  0.16928408  0.59548066    -0.24100
H491        H  0.40249989  0.05432975  0.44650041     0.05100
H492        H  0.44662266  0.05156662  0.46452946     0.08300
H493        H  0.43392220  0.08475688  0.42456607     0.08300
H494        H  0.36213465  0.16659152  0.60301853     0.08300
H495        H  0.39547749  0.19645579  0.58426103     0.08300
H496        H  0.40458285  0.16424019  0.62723524     0.05100
C497        C  0.13338166  0.08400875  0.58074266    -0.20700
C498        C  0.10919121  0.07347292  0.54844299    -0.07300
C499        C  0.11183131  0.08582712  0.50322676     0.13600
C500        C  0.13679038  0.11082741  0.49255065    -0.20800
C501        C  0.16030602  0.12196329  0.52520224    -0.07300
C502        C  0.15971101  0.10725335  0.56916340     0.13600
C503        C  0.18643764  0.11647599  0.60402001    -0.24100
H504        H  0.13129807  0.07444523  0.61522641     0.14900
H505        H  0.13784440  0.12174946  0.45862874     0.14900
C506        C  0.08817142  0.07398335  0.46580557    -0.24100
H507        H  0.21192579  0.10784446  0.59192032     0.05100
H508        H  0.18167663  0.10317772  0.63694825     0.08300
H509        H  0.18672624  0.14518170  0.60957537     0.08300
H510        H  0.07004118  0.05324084  0.47672155     0.08300
H511        H  0.10366981  0.06322324  0.43784714     0.08300
H512        H  0.07307031  0.09667587  0.45275210     0.05100
C513        C  0.11968903  0.34498413  0.56067117    -0.20700
C514        C  0.13746460  0.35049063  0.52009147    -0.07300
C515        C  0.13080479  0.38069346  0.49363160     0.13600
C516        C  0.10667554  0.40495287  0.50870743    -0.20800
C517        C  0.08981318  0.40015329  0.55003995    -0.07300
C518        C  0.09626931  0.36978462  0.57646296     0.13600
C519        C  0.07975632  0.36323998  0.62171527    -0.24100
H520        H  0.12530811  0.32194765  0.58123358     0.14900
H521        H  0.10115341  0.42814809  0.48844392     0.14900
C522        C  0.14863531  0.38715464  0.44928129    -0.24100
H523        H  0.06437759  0.33876965  0.62048765     0.05100
H524        H  0.06261272  0.38484447  0.63208426     0.08300
H525        H  0.10002696  0.36021823  0.64809296     0.08300
H526        H  0.14403323  0.36473984  0.42644321     0.08300
H527        H  0.17667063  0.39040334  0.45484692     0.08300
H528        H  0.13901608  0.41129206  0.43210582     0.05100
C529        C  0.37751321  0.36992311  0.56145107    -0.20700
C530        C  0.35977430  0.37212666  0.52013828    -0.07300
C531        C  0.36585718  0.40012529  0.48989569     0.13600
C532        C  0.39182478  0.42406714  0.50033464    -0.20800
C533        C  0.41102275  0.42045871  0.54038959    -0.07300
C534        C  0.40305627  0.39410192  0.57215572     0.13600
C535        C  0.42167916  0.39147601  0.61689035    -0.24100
H536        H  0.37162948  0.34888971  0.58504373     0.14900
H537        H  0.39813997  0.44483427  0.47654177     0.14900
C538        C  0.34613940  0.40384114  0.44609758    -0.24100
H539        H  0.41177873  0.36952166  0.63800341     0.05100
H540        H  0.41816539  0.41615882  0.63578644     0.08300
H541        H  0.44953016  0.38713865  0.61145478     0.08300
H542        H  0.31840721  0.40749050  0.45315385     0.08300
H543        H  0.34959267  0.37999787  0.42549085     0.08300
H544        H  0.35498796  0.42679466  0.42595887     0.05100
C545        C  0.13842044  0.25161670  0.31483876    -0.20700
C546        C  0.13805489  0.23731855  0.35869197    -0.07300
C547        C  0.10700796  0.22137644  0.37379827     0.13600
C548        C  0.07684305  0.22460173  0.34766985    -0.20800
C549        C  0.07611544  0.24210973  0.30559951    -0.07300
C550        C  0.10857807  0.25228618  0.28723570     0.13600
C551        C  0.11372926  0.26237739  0.23835683    -0.24100
H552        H  0.16232250  0.26184493  0.30153806     0.14900
H553        H  0.05381953  0.21213618  0.36011589     0.14900
C554        C  0.10524627  0.19937513  0.41657315    -0.24100
H555        H  0.13502575  0.24655723  0.22434688     0.05100
H556        H  0.12070624  0.29051044  0.23574156     0.08300
H557        H  0.09116592  0.25714840  0.21659470     0.08300
H558        H  0.10684638  0.21612365  0.44687950     0.08300
H559        H  0.12635623  0.17978524  0.41706927     0.08300
H560        H  0.08068528  0.18468504  0.41901416     0.05100
C561        C  0.43609981  0.27742317  0.33461638    -0.20700
C562        C  0.44212769  0.24912982  0.30582266    -0.07300
C563        C  0.41546285  0.22420542  0.29988255     0.13600
C564        C  0.38428375  0.22753473  0.32400566    -0.20800
C565        C  0.37906386  0.25487639  0.35469600    -0.07300
C566        C  0.40526201  0.28060752  0.35904863     0.13600
C567        C  0.40087990  0.31182865  0.38931755    -0.24100
H568        H  0.45608331  0.29693327  0.33870170     0.14900
H569        H  0.36467246  0.20755165  0.32080250     0.14900
C570        C  0.42056866  0.19277189  0.27048871    -0.24100
H571        H  0.42250702  0.33062487  0.38588807     0.05100
H572        H  0.40006633  0.30342895  0.42525934     0.08300
H573        H  0.37677176  0.32589582  0.38025247     0.08300
H574        H  0.44310712  0.17760580  0.28292618     0.08300
H575        H  0.42476030  0.20112447  0.23499192     0.08300
H576        H  0.39787499  0.17514487  0.27100554     0.05100
C577        C  0.25563321  0.40388989  0.37375875    -0.20700
C578        C  0.25284452  0.37025197  0.35408938    -0.07300
C579        C  0.24867914  0.36888481  0.30644999     0.13600
C580        C  0.24710881  0.40045215  0.28084139    -0.20800
C581        C  0.24914002  0.43372888  0.30108545    -0.07300
C582        C  0.25316411  0.43519657  0.34829015     0.13600
C583        C  0.25250363  0.46972632  0.37245049    -0.24100
H584        H  0.25883732  0.40611509  0.40996790     0.14900
H585        H  0.24323498  0.39921709  0.24459489     0.14900
C586        C  0.24467086  0.33462387  0.28223076    -0.24100
H587        H  0.25416229  0.46617641  0.40968980     0.05100
H588        H  0.22813373  0.48373277  0.36448245     0.08300
H589        H  0.27455875  0.48612491  0.36184024     0.08300
H590        H  0.22197032  0.32028828  0.29541373     0.08300
H591        H  0.26816944  0.31847328  0.28703721     0.08300
H592        H  0.24073978  0.33859347  0.24532464     0.05100
C593        C  0.27578184  0.11970554  0.31955427    -0.20700
C594        C  0.25578161  0.12314760  0.35858937    -0.07300
C595        C  0.23230214  0.09572908  0.36933889     0.13600
C596        C  0.22981212  0.06606568  0.34148321    -0.20800
C597        C  0.25017143  0.06229452  0.30297306    -0.07300
C598        C  0.27312135  0.08981811  0.29170856     0.13600
C599        C  0.29381502  0.08836284  0.24925263    -0.24100
H600        H  0.29365126  0.14041923  0.31085935     0.14900
H601        H  0.21103553  0.04596051  0.34917274     0.14900
C602        C  0.20840446  0.09816046  0.40908839    -0.24100
H603        H  0.31019425  0.11194606  0.24484548     0.05100
H604        H  0.27609046  0.08689001  0.21980147     0.08300
H605        H  0.31078250  0.06501090  0.25046027     0.08300
H606        H  0.19344649  0.12290881  0.40688851     0.08300
H607        H  0.22325009  0.09720608  0.44118111     0.08300
H608        H  0.18982279  0.07608912  0.41011228     0.05100
O609        O  0.26013034  0.68841067  0.36890355    -0.86900
O610        O  0.26249547  0.68808129  0.62810399    -0.87100
O611        O  0.32292105  0.65587425  0.50086288    -0.88700
O612        O  0.21295536  0.64608723  0.50781034    -0.87500
O613        O  0.16790435  0.68472097  0.50313138    -0.87100
O614        O  0.36048211  0.70207873  0.50171595    -0.88500
O615        O  0.26722156  0.64883276  0.57051797    -0.86900
O616        O  0.26397421  0.64835357  0.42746828    -0.86500
Zr617      Zr  0.26524771  0.67951987  0.49823371     2.84300
O618        O  0.22840388  0.71113934  0.54411081    -1.08500
O619        O  0.29628201  0.71700763  0.45055444    -1.09200
C620        C  0.26109240  0.65643502  0.38522439     1.06200
C621        C  0.26546482  0.65633885  0.61276846     1.06100
C622        C  0.35322611  0.66925906  0.50347939     1.09100
C623        C  0.18082223  0.65389612  0.50889613     1.06900
H624        H  0.31210599  0.70308827  0.56368893     0.32500
O625        O  0.29642274  0.71670324  0.54520567    -1.29500
H626        H  0.21399973  0.69493564  0.43290364     0.32100
O627        O  0.22794426  0.71093722  0.45027604    -1.31100
O628        O  0.25779079  0.80702095  0.62767805    -0.86900
O629        O  0.25516713  0.80934165  0.36796694    -0.88400
O630        O  0.35688905  0.75671468  0.56962642    -0.87000
O631        O  0.16218119  0.74115996  0.56666022    -0.87000
O632        O  0.16211457  0.74217204  0.42459074    -0.86700
O633        O  0.35635636  0.75807551  0.42589516    -0.86500
O634        O  0.30418130  0.85279660  0.50392263    -0.86900
O635        O  0.19569155  0.84230474  0.50152118    -0.86400
O636        O  0.34897393  0.81381883  0.50713086    -0.87400
O637        O  0.15798627  0.79633183  0.50147289    -0.86600
O638        O  0.31832325  0.75078568  0.62761025    -0.87000
O639        O  0.31746608  0.75242646  0.36759648    -0.86700
O640        O  0.20028608  0.74499993  0.36617440    -0.86400
O641        O  0.20040121  0.74316806  0.62577521    -0.86800
O642        O  0.25347581  0.84724461  0.56980280    -0.87100
O643        O  0.25122406  0.84875213  0.42555755    -0.88400
Zr644      Zr  0.25946019  0.74781656  0.59297638     2.83100
Zr645      Zr  0.25890500  0.74895142  0.40192862     2.83500
Zr646      Zr  0.32672347  0.75497899  0.49780018     2.84100
Zr647      Zr  0.19189146  0.74326099  0.49640106     2.83400
Zr648      Zr  0.25297352  0.81787567  0.49735012     2.84200
O649        O  0.22190924  0.78133111  0.44898693    -1.09000
O650        O  0.28984973  0.78576321  0.54444273    -1.08500
C651        C  0.25578228  0.83904174  0.61216599     1.06200
C652        C  0.25274801  0.84120330  0.38325320     1.08800
C653        C  0.34938121  0.75432968  0.61191368     1.06300
C654        C  0.16935558  0.74093971  0.60895682     1.06700
C655        C  0.16922081  0.74224290  0.38224142     1.06300
C656        C  0.34860041  0.75632104  0.38352044     1.05800
C657        C  0.33604291  0.84483528  0.50898784     1.06300
C658        C  0.16530649  0.82915029  0.50382473     1.05800
H659        H  0.30356761  0.80330222  0.43249122     0.32500
O660        O  0.29009854  0.78701532  0.45008898    -1.30100
H661        H  0.20701754  0.79354085  0.56301550     0.32500
O662        O  0.22245699  0.78016137  0.54463725    -1.31500
N663        N  0.45957700  0.50329028  0.54706788    -0.37000
N664        N  0.01552543  0.55103383  0.56567328    -0.57600
N665        N  0.06120599  0.49155276  0.56422698    -0.37000
N666        N  0.00226069  0.94372112  0.56391946    -0.57600
C667        C  0.44394076  0.53385373  0.55575726     0.26600
C668        C  0.43717415  0.97818385  0.55868811     0.26600
C669        C  0.08422169  0.51791593  0.56735006     0.26600
C670        C  0.07604891  0.96015397  0.57143016     0.26600
C671        C  0.49162081  0.57384956  0.53741808     0.35200
C672        C  0.04429180  0.56745935  0.55178439     0.35200
C673        C  0.47395848  0.92817214  0.53794564     0.35200
C674        C  0.02723563  0.92201625  0.54999220     0.35200
C675        C  0.41135052  0.52775013  0.57269104    -0.22300
C676        C  0.40656294  0.99259898  0.57330591    -0.22300
C677        C  0.11636987  0.50428305  0.57797646    -0.22300
C678        C  0.10978153  0.96533003  0.58523671    -0.22300
C679        C  0.50530701  0.60559073  0.52340517    -0.23400
C680        C  0.03635748  0.60045146  0.53452081    -0.23400
C681        C  0.47920563  0.89552069  0.51916561    -0.23400
C682        C  0.01314766  0.89300233  0.52908786    -0.23400
C683        C  0.45646023  0.56660103  0.54176269    -0.18700
C684        C  0.44172506  0.94297230  0.54717900    -0.18700
C685        C  0.06254005  0.92783295  0.55710185    -0.18700
C686        C  0.07762724  0.55305933  0.55471375    -0.18700
H687        H  0.39215010  0.54708372  0.58113638     0.14200
H688        H  0.38291308  0.97895618  0.58103996     0.14200
H689        H  0.14039224  0.51832550  0.58107116     0.14200
H690        H  0.12916058  0.94547500  0.59153538     0.14200
H691        H  0.49167102  0.62908111  0.51304806     0.12500
H692        H  0.05377365  0.62006004  0.52134716     0.12500
H693        H  0.45994544  0.87683458  0.50853274     0.12500
H694        H  0.02662109  0.87104745  0.51466366     0.12500
H695        H  0.48125263  0.50050726  0.52716235     0.25700
H696        H  0.03696497  0.49352404  0.54967059     0.25700
O697        O  0.48697490  0.94119473  0.86620299    -0.86900
O698        O  0.48974693  0.93880250  0.12579510    -0.87100
O699        O  0.03349961  0.89747727  0.00322653    -0.88700
O700        O  0.43027744  0.90290913  0.00143338    -0.87500
O701        O  0.38981788  0.94663568  0.00138202    -0.87100
O702        O  0.07766334  0.93707431  0.99843621    -0.88500
O703        O  0.48909751  0.89919843  0.06773090    -0.86900
O704        O  0.48601419  0.90105108  0.92425000    -0.86500
Zr705      Zr  0.48607406  0.93044108  0.99622452     2.84300
O706        O  0.45342600  0.96556356  0.04379649    -1.08500
O707        O  0.01670985  0.96284442  0.94740727    -1.09200
C708        C  0.48666794  0.90911744  0.88193897     1.06200
C709        C  0.49052875  0.90706686  0.10991265     1.06100
C710        C  0.06549128  0.90601767  0.00383940     1.09100
C711        C  0.39923315  0.91437470  0.00369044     1.06900
H712        H  0.03078661  0.94735113  0.06057285     0.32500
O713        O  0.01707757  0.96280851  0.04169368    -1.29500
H714        H  0.43644305  0.95157015  0.93183858     0.32100
O715        O  0.45165216  0.96604742  0.94944523    -1.31100
O716        O  0.48938203  0.55775864  0.12427136    -0.86900
O717        O  0.48467634  0.55988768  0.86459763    -0.88400
O718        O  0.08436941  0.99587622  0.06481926    -0.87000
O719        O  0.39125502  0.00365738  0.07033995    -0.87000
O720        O  0.38876240  0.50105419  0.92326259    -0.86700
O721        O  0.08568802  0.49279034  0.92956851    -0.86500
O722        O  0.04730001  0.59255781  0.00590855    -0.86900
O723        O  0.43387029  0.59791063  0.99675029    -0.86400
O724        O  0.08693313  0.54823418  0.00372020    -0.87400
O725        O  0.39139800  0.55643471  0.99428485    -0.86600
O726        O  0.04559498  0.99848566  0.12299836    -0.87000
O727        O  0.04639585  0.49719510  0.87135122    -0.86700
O728        O  0.42738114  0.50037210  0.86479458    -0.86400
O729        O  0.43138144  0.99967650  0.12768783    -0.86800
O730        O  0.49123689  0.59802117  0.06638812    -0.87100
O731        O  0.48532149  0.59873392  0.92290564    -0.88400
Zr732      Zr  0.48901408  0.99904049  0.09144556     2.83100
Zr733      Zr  0.48597807  0.49999731  0.89916932     2.83500
Zr734      Zr  0.05310091  0.99502409  0.99399955     2.84100
Zr735      Zr  0.41979815  0.00188718  0.99740923     2.83400
Zr736      Zr  0.48866221  0.56804676  0.99468226     2.84200
O737        O  0.45299176  0.53496722  0.94787498    -1.09000
O738        O  0.02245399  0.53106547  0.04715152    -1.08500
C739        C  0.49068893  0.58997797  0.10883655     1.06200
C740        C  0.48438168  0.59157726  0.88044889     1.08800
C741        C  0.07683070  0.99751869  0.10703327     1.06300
C742        C  0.39995582  0.00224170  0.11252812     1.06700
C743        C  0.39636476  0.50036491  0.88095353     1.06300
C744        C  0.07757724  0.49433165  0.88724593     1.05800
C745        C  0.07815188  0.58041116  0.00735927     1.06300
C746        C  0.40221435  0.58809401  0.99628866     1.05800
H747        H  0.03934286  0.54700812  0.93506612     0.32500
O748        O  0.02371728  0.53266645  0.95250070    -1.30100
H749        H  0.44020915  0.54892216  0.06028574     0.32500
O750        O  0.45419388  0.53383644  0.04200361    -1.31500
N751        N  0.18340968  0.74530808  0.05674044    -0.37000
N752        N  0.23290420  0.80111118  0.04826153    -0.57600
N753        N  0.28708099  0.75145493  0.03946934    -0.37000
N754        N  0.23873200  0.69578195  0.04985788    -0.57600
C755        C  0.16347724  0.77225845  0.04264293     0.26600
C756        C  0.16678883  0.71571534  0.04522031     0.26600
C757        C  0.30271424  0.78084118  0.02481796     0.26600
C758        C  0.30533861  0.72430466  0.02365418     0.26600
C759        C  0.20465448  0.81985247  0.05753162     0.35200
C760        C  0.25964618  0.82329197  0.05110370     0.35200
C761        C  0.21341063  0.67389175  0.06204481     0.35200
C762        C  0.26785035  0.67694677  0.05168656     0.35200
C763        C  0.13355726  0.75971976  0.02285966    -0.22300
C764        C  0.13567836  0.72389689  0.02440827    -0.22300
C765        C  0.33156797  0.77236437  0.99994971    -0.22300
C766        C  0.33311854  0.73649148  0.99899937    -0.22300
C767        C  0.21341632  0.85413350  0.06730780    -0.23400
C768        C  0.24854242  0.85631614  0.06334944    -0.23400
C769        C  0.22649034  0.64104540  0.07290666    -0.23400
C770        C  0.26128254  0.64297560  0.06618985    -0.23400
C771        C  0.17136471  0.80785888  0.04813700    -0.18700
C772        C  0.17875315  0.68154307  0.05411160    -0.18700
C773        C  0.29902050  0.68899048  0.03420840    -0.18700
C774        C  0.29266637  0.81499283  0.03583532    -0.18700
H775        H  0.11254542  0.77478309  0.00836800     0.14200
H776        H  0.11662605  0.70597751  0.01125245     0.14200
H777        H  0.34978794  0.79014041  0.98448983     0.14200
H778        H  0.35285540  0.72114899  0.98290155     0.14200
H779        H  0.19610472  0.87565076  0.07371187     0.12500
H780        H  0.26383449  0.87985451  0.06638930     0.12500
H781        H  0.21219865  0.61769718  0.08186866     0.12500
H782        H  0.27934895  0.62149708  0.06933828     0.12500
H783        H  0.20570149  0.74694322  0.07634366     0.25700
H784        H  0.26779465  0.75010726  0.06356356     0.25700
C785        C  0.03989292  0.74700726  0.27537843     0.86100
C786        C  0.03455357  0.71725045  0.24209736    -0.54200
C787        C  0.50602589  0.71572018  0.22128955     0.09000
C788        C  0.48298742  0.74856235  0.22957577     0.19900
C789        C  0.03413867  0.78099568  0.24791647    -0.54900
C790        C  0.50645568  0.78121347  0.22230976     0.09100
C791        C  0.50658402  0.74738021  0.30603236    -0.54400
C792        C  0.47651164  0.74798633  0.28115885     0.09700
H793        H  0.05310429  0.69617128  0.23866764     0.14200
H794        H  0.45919760  0.74946160  0.20893774    -0.00100
H795        H  0.05272093  0.80212649  0.24753142     0.14500
H796        H  0.50632811  0.74867723  0.34260173     0.14300
C797        C  0.20725226  0.00268167  0.21340470     0.86100
C798        C  0.21051636  0.97024348  0.24432931    -0.54200
C799        C  0.24012775  0.96786757  0.26923069     0.09000
C800        C  0.26431908  0.99988990  0.26201245     0.19900
C801        C  0.21299063  0.53150772  0.24967059    -0.54900
C802        C  0.24271280  0.53125129  0.27458135     0.09100
C803        C  0.24083322  0.00331445  0.18546378    -0.54400
C804        C  0.27067155  0.00106815  0.21054734     0.09700
H805        H  0.19062321  0.95034736  0.24632183     0.14200
H806        H  0.28853819  0.99895454  0.28190711    -0.00100
H807        H  0.19600731  0.55391959  0.25082793     0.14500
H808        H  0.24110972  0.00615974  0.14897936     0.14300
C809        C  0.04339306  0.74920989  0.71765869     0.86100
C810        C  0.03923537  0.78270345  0.74568373    -0.54200
C811        C  0.50889588  0.78568223  0.76876464     0.09000
C812        C  0.48462032  0.75336805  0.76276650     0.19900
C813        C  0.03816338  0.71855861  0.75021037    -0.54900
C814        C  0.50576536  0.71974833  0.77517138     0.09100
C815        C  0.51042848  0.74845673  0.68883002    -0.54400
C816        C  0.47983384  0.75154170  0.71128193     0.09700
H817        H  0.05770080  0.80397991  0.74467028     0.14200
H818        H  0.45974976  0.75552193  0.78049210    -0.00100
H819        H  0.05631002  0.69698604  0.75321988     0.14500
H820        H  0.51104706  0.74702978  0.65236390     0.14300
C821        C  0.20297893  0.99709380  0.77391161     0.86100
C822        C  0.20857782  0.52928128  0.74422102    -0.54200
C823        C  0.23981035  0.53112602  0.72338175     0.09000
C824        C  0.26246698  0.99775991  0.73234499     0.19900
C825        C  0.20870577  0.96598128  0.74281548    -0.54900
C826        C  0.23962291  0.96523137  0.72125620     0.09100
C827        C  0.23500472  0.99786180  0.80578642    -0.54400
C828        C  0.26601331  0.99724889  0.78403397     0.09700
H829        H  0.19054547  0.55050793  0.73996460     0.14200
H830        H  0.28790410  0.99809791  0.71589601    -0.00100
H831        H  0.18974738  0.94528690  0.73929887     0.14500
H832        H  0.23326349  0.99886544  0.84232020     0.14300
C833        C  0.13347744  0.97303794  0.13129681    -0.20700
C834        C  0.10757469  0.99810455  0.13802324    -0.07300
C835        C  0.11246570  0.51751648  0.18133630     0.13600
C836        C  0.14483382  0.51948137  0.20331693    -0.20800
C837        C  0.17298576  0.00163461  0.18506063    -0.07300
C838        C  0.16569058  0.97425942  0.15375728     0.13600
C839        C  0.19138664  0.94591153  0.14268266    -0.24100
H840        H  0.12858453  0.95240864  0.10718760     0.14900
H841        H  0.14682412  0.53722047  0.23119388     0.14900
C842        C  0.08413047  0.54183722  0.19518785    -0.24100
H843        H  0.18051884  0.92677765  0.11851175     0.05100
H844        H  0.19902972  0.93076289  0.17319672     0.08300
H845        H  0.21437884  0.95721071  0.12637008     0.08300
H846        H  0.07580310  0.55816548  0.16580241     0.08300
H847        H  0.09242836  0.55970633  0.22253270     0.08300
H848        H  0.06209812  0.52621930  0.20784078     0.05100
C849        C  0.36095902  0.97450967  0.17013498    -0.20700
C850        C  0.37061416  0.00420996  0.14479420    -0.07300
C851        C  0.34456616  0.53097848  0.13833405     0.13600
C852        C  0.31353895  0.52897925  0.16243483    -0.20800
C853        C  0.30587165  0.00169915  0.18967440    -0.07300
C854        C  0.32910997  0.97308577  0.19302862     0.13600
C855        C  0.31961499  0.94022357  0.21853664    -0.24100
H856        H  0.37768890  0.95179820  0.17040974     0.14900
H857        H  0.29441085  0.54933494  0.15755014     0.14900
C858        C  0.35118587  0.56274920  0.10891259    -0.24100
H859        H  0.33984462  0.91981906  0.21598454     0.05100
H860        H  0.29533242  0.92936282  0.20461587     0.08300
H861        H  0.31626080  0.94610110  0.25482239     0.08300
H862        H  0.35246792  0.55522492  0.07293328     0.08300
H863        H  0.37580171  0.57518445  0.11913908     0.08300
H864        H  0.33051905  0.58265237  0.11196459     0.05100
C865        C  0.97420060  0.81372145  0.15961471    -0.20700
C866        C  0.49957598  0.81248651  0.19208514    -0.07300
C867        C  0.47094823  0.83518275  0.19700262     0.13600
C868        C  0.46902598  0.86676771  0.17145272    -0.20800
C869        C  0.49501489  0.87633064  0.14104313    -0.07300
C870        C  0.96810557  0.84271557  0.13063502     0.13600
C871        C  0.94810846  0.83617375  0.08761710    -0.24100
H872        H  0.96572757  0.78828325  0.14918239     0.14900
H873        H  0.44690317  0.88378752  0.17470019     0.14900
C874        C  0.44305387  0.82706449  0.23031119    -0.24100
H875        H  0.93730673  0.80925347  0.08678547     0.05100
H876        H  0.96509849  0.83883893  0.05787405     0.08300
H877        H  0.92622551  0.85477434  0.08477583     0.08300
H878        H  0.45440777  0.82500047  0.26467366     0.08300
H879        H  0.43012660  0.80218465  0.22144628     0.08300
H880        H  0.42315143  0.84792237  0.23068733     0.05100
C881        C  0.48815275  0.65534967  0.12092368    -0.20700
C882        C  0.49161376  0.62131161  0.14035750    -0.07300
C883        C  0.99304782  0.62034342  0.19117141     0.13600
C884        C  0.99652821  0.65202469  0.21521077    -0.20800
C885        C  0.49731561  0.68407554  0.19324583    -0.07300
C886        C  0.49133886  0.68630806  0.14632228     0.13600
C887        C  0.49036762  0.72129086  0.12225145    -0.24100
H888        H  0.48364778  0.65814685  0.08493044     0.14900
H889        H  0.00286196  0.65094191  0.25091982     0.14900
C890        C  0.99659076  0.58623763  0.21667653    -0.24100
H891        H  0.48760901  0.71836671  0.08512064     0.05100
H892        H  0.51456334  0.73583059  0.12892717     0.08300
H893        H  0.46820808  0.73686935  0.13400964     0.08300
H894        H  0.01845645  0.57117567  0.20325178     0.08300
H895        H  0.97256128  0.57080514  0.21322239     0.08300
H896        H  0.00138884  0.59032627  0.25327392     0.05100
C897        C  0.11711701  0.87341614  0.98343264    -0.20700
C898        C  0.09051477  0.87871149  0.01406721    -0.07300
C899        C  0.09061323  0.86117346  0.05634976     0.13600
C900        C  0.11787296  0.83872647  0.06719041    -0.20800
C901        C  0.14457515  0.83363980  0.03662486    -0.07300
C902        C  0.14407015  0.85057336  0.99398428     0.13600
C903        C  0.17150331  0.84404571  0.95937622    -0.24100
H904        H  0.11679575  0.88733760  0.95129301     0.14900
H905        H  0.11841180  0.82497589  0.09943799     0.14900
C906        C  0.06270353  0.86688293  0.09052910    -0.24100
H907        H  0.16637525  0.85870149  0.92740023     0.05100
H908        H  0.17250490  0.81570513  0.95147546     0.08300
H909        H  0.19691039  0.85253539  0.97247502     0.08300
H910        H  0.03767521  0.85817320  0.07643179     0.08300
H911        H  0.06122858  0.89505923  0.09919508     0.08300
H912        H  0.06749876  0.85179407  0.12226447     0.05100
C913        C  0.34582139  0.88544840  0.97969422    -0.20700
C914        C  0.37224379  0.88876287  0.01171683    -0.07300
C915        C  0.37148165  0.86927360  0.05245522     0.13600
C916        C  0.34381768  0.84691372  0.06046762    -0.20800
C917        C  0.31772234  0.84306028  0.02815908    -0.07300
C918        C  0.31877388  0.86206360  0.98697515     0.13600
C919        C  0.29264985  0.85732952  0.94963585    -0.24100
H920        H  0.34675027  0.90056726  0.94848292     0.14900
H921        H  0.34300741  0.83145340  0.09139613     0.14900
C922        C  0.39959668  0.87220245  0.08758394    -0.24100
H923        H  0.30581906  0.84823041  0.91875197     0.05100
H924        H  0.27984123  0.88273509  0.94207557     0.08300
H925        H  0.27246968  0.83794393  0.95817306     0.08300
H926        H  0.40219938  0.89983047  0.09843024     0.08300
H927        H  0.42431881  0.86314224  0.07337791     0.08300
H928        H  0.39418618  0.85586807  0.11798737     0.05100
C929        C  0.32131873  0.64176483  0.98664294    -0.20700
C930        C  0.32576705  0.66333284  0.02420299    -0.07300
C931        C  0.35541901  0.66071120  0.05147332     0.13600
C932        C  0.38077712  0.63686084  0.03981087    -0.20800
C933        C  0.37632259  0.61492458  0.00264551    -0.07300
C934        C  0.34617517  0.61690419  0.97586334     0.13600
C935        C  0.34032399  0.59335993  0.93591374    -0.24100
H936        H  0.29816747  0.64420783  0.96621256     0.14900
H937        H  0.40359421  0.63427281  0.06088492     0.14900
C938        C  0.35974157  0.68223014  0.09352408    -0.24100
H939        H  0.33817188  0.56567599  0.94732268     0.05100
H940        H  0.36198485  0.59597860  0.91193515     0.08300
H941        H  0.31619519  0.60011380  0.91748477     0.08300
H942        H  0.33805733  0.67697000  0.11679218     0.08300
H943        H  0.36021053  0.71052789  0.08467000     0.08300
H944        H  0.38405694  0.67583175  0.11172577     0.05100
C945        C  0.10020440  0.62485251  0.05742296    -0.20700
C946        C  0.10513336  0.60496035  0.01858923    -0.07300
C947        C  0.13594169  0.60743568  0.99406919     0.13600
C948        C  0.16045094  0.63182581  0.00780635    -0.20800
C949        C  0.15503683  0.65242014  0.04611224    -0.07300
C950        C  0.12518481  0.64810359  0.07215340     0.13600
C951        C  0.11880649  0.66773795  0.11518559    -0.24100
H952        H  0.07688234  0.62172687  0.07693659     0.14900
H953        H  0.18350465  0.63561950  0.98800122     0.14900
C954        C  0.14248898  0.58557919  0.95285676    -0.24100
H955        H  0.11442031  0.64872389  0.14321524     0.05100
H956        H  0.09559963  0.68444125  0.11100879     0.08300
H957        H  0.14070853  0.68460249  0.12512147     0.08300
H958        H  0.12178311  0.59002867  0.92741162     0.04100
H959        H  0.14336793  0.55739013  0.96232877     0.08300
H960        H  0.16743077  0.59227581  0.93693374     0.05100
C961        C  0.34229177  0.47086202  0.85960324    -0.20700
C962        C  0.36608029  0.49754720  0.85014058    -0.07300
C963        C  0.35776167  0.52285282  0.81661581     0.13600
C964        C  0.31153774  0.03020133  0.82610515    -0.20800
C965        C  0.30016644  0.99848193  0.80777581    -0.07300
C966        C  0.31006240  0.46947282  0.83796899     0.13600
C967        C  0.28659804  0.43921506  0.84863630    -0.24100
H968        H  0.34876123  0.45128662  0.88510576     0.14900
H969        H  0.29519614  0.05312103  0.82290973     0.14900
C970        C  0.35452567  0.06737505  0.86749092    -0.24100
H971        H  0.29955563  0.41975611  0.87104133     0.05100
H972        H  0.27899554  0.42575701  0.81704714     0.08300
H973        H  0.28575883  0.92615293  0.80764959     0.08300
H974        H  0.40667949  0.54074372  0.79224500     0.08300
H975        H  0.35857764  0.06497259  0.90451934     0.08300
H976        H  0.33496257  0.08810656  0.86121908     0.05100
C977        C  0.14269348  0.52005000  0.79678101    -0.20700
C978        C  0.16775900  0.99448802  0.79854535    -0.07300
C979        C  0.16207893  0.97017011  0.83463187     0.13600
C980        C  0.13132078  0.97140737  0.85925196    -0.20800
C981        C  0.10706236  0.49338183  0.85521917    -0.07300
C982        C  0.11240999  0.51992154  0.82264747     0.13600
C983        C  0.08679963  0.54925394  0.81642887    -0.24100
H984        H  0.14495684  0.54074192  0.77218601     0.14900
H985        H  0.12847656  0.95392024  0.88811792     0.14900
C986        C  0.18713736  0.94171388  0.84851137    -0.24100
H987        H  0.09533790  0.56884925  0.79090119     0.05100
H988        H  0.07008581  0.05586865  0.81647113     0.08300
H989        H  0.06186087  0.53843380  0.80481699     0.08300
H990        H  0.20899544  0.93856815  0.82539426     0.08300
H991        H  0.17259656  0.41169839  0.83823243     0.08300
H992        H  0.19720525  0.94696938  0.88296976     0.05100
C993        C  0.99704640  0.65804232  0.87468058    -0.20700
C994        C  0.48379891  0.62332286  0.84940884    -0.07300
C995        C  0.49146373  0.62278774  0.80266443     0.13600
C996        C  0.49600285  0.65474790  0.77885391    -0.20800
C997        C  0.49299148  0.68760665  0.79994636    -0.07300
C998        C  0.99909037  0.68932451  0.84912476     0.13600
C999        C  0.00352237  0.72379830  0.87278145    -0.24100
H1000       H  0.99851026  0.66014793  0.91107003     0.14900
H1001       H  0.50324661  0.65409390  0.74359284     0.14900
C1002       C  0.49581144  0.58902633  0.77759815    -0.24100
H1003       H  0.00407330  0.72045926  0.91008720     0.05100
H1004       H  0.98183980  0.74152148  0.86380705     0.08300
H1005       H  0.02803269  0.73626551  0.86234719     0.08300
H1006       H  0.47170581  0.57354417  0.77929880     0.08300
H1007       H  0.51727813  0.57376199  0.79266994     0.08300
H1008       H  0.50176800  0.59363534  0.74138447     0.05100
C1009       C  0.50390618  0.88224195  0.80778774    -0.20700
C1010       C  0.48818375  0.87847543  0.85016333    -0.07300
C1011       C  0.02611353  0.86087214  0.85039298     0.13600
C1012       C  0.02943837  0.82987033  0.82539122    -0.20800
C1013       C  0.49961965  0.81891311  0.79355803    -0.07300
C1014       C  0.50884564  0.85339900  0.77887912     0.13600
C1015       C  0.52223301  0.86164805  0.73228244    -0.24100
H1016       H  0.51253658  0.90796368  0.79694882     0.14900
H1017       H  0.05369330  0.81589670  0.82651587     0.14900
C1018       C  0.05655641  0.87410488  0.87701757    -0.24100
H1019       H  0.50596703  0.88231008  0.71626546     0.05100
H1020       H  0.52143360  0.83911749  0.70923751     0.08300
H1021       H  0.54902736  0.87145249  0.73475872     0.08300
H1022       H  0.43331094  0.85676616  0.90632054     0.08300
H1023       H  0.06314718  0.90106158  0.86555710     0.08300
H1024       H  0.07958936  0.85731424  0.87264522     0.05100
C1025       C  0.40623646  0.77979159  0.63188336    -0.20700
C1026       C  0.37995497  0.75599444  0.64311974    -0.07300
C1027       C  0.38599999  0.73202685  0.67919826     0.13600
C1028       C  0.41859929  0.73127751  0.70099024    -0.20800
C1029       C  0.44531082  0.75416165  0.68810989    -0.07300
C1030       C  0.43826893  0.77973635  0.65427048     0.13600
C1031       C  0.46359620  0.80831381  0.64289386    -0.24100
H1032       H  0.40173754  0.79859330  0.60479937     0.14900
H1033       H  0.42349611  0.71222710  0.72769196     0.14900
C1034       C  0.35865365  0.70656274  0.69394189    -0.24100
H1035       H  0.45303389  0.82690030  0.61727169     0.05100
H1036       H  0.48745115  0.79744035  0.62860919     0.08300
H1037       H  0.46963136  0.82332229  0.67378756     0.08300
H1038       H  0.35061216  0.68989653  0.66530557     0.08300
H1039       H  0.33600643  0.72116996  0.70634780     0.08300
H1040       H  0.36791712  0.68909556  0.72171486     0.05100
C1041       C  0.07759663  0.72702138  0.65117652    -0.20700
C1042       C  0.07771809  0.74535390  0.69211561    -0.07300
C1043       C  0.11046082  0.75570335  0.70964426     0.13600
C1044       C  0.13985287  0.75394012  0.68208248    -0.20800
C1045       C  0.13858408  0.73906577  0.63901590    -0.07300
C1046       C  0.10693608  0.72394776  0.62436108     0.13600
C1047       C  0.10320538  0.70381199  0.58081900    -0.24100
H1048       H  0.05435958  0.71427725  0.63982508     0.14900
H1049       H  0.16409316  0.76402228  0.69470096     0.14900
C1050       C  0.11639854  0.76688546  0.75775157    -0.24100
H1051       H  0.07794218  0.69042024  0.57813651     0.05100
H1052       H  0.12325161  0.68329781  0.57909577     0.08300
H1053       H  0.10489118  0.72174654  0.55118525     0.08300
H1054       H  0.13891173  0.75259419  0.77210000     0.08300
H1055       H  0.09474517  0.76044212  0.78030368     0.08300
H1056       H  0.12185525  0.79541170  0.75863727     0.05100
C1057       C  0.27204733  0.56250353  0.66120505    -0.20700
C1058       C  0.25184577  0.56454577  0.70006274    -0.07300
C1059       C  0.24259497  0.59871971  0.71488240     0.13600
C1060       C  0.24781155  0.62813851  0.68640334    -0.20800
C1061       C  0.26502331  0.62543589  0.64507072    -0.07300
C1062       C  0.27940008  0.59223382  0.63415939     0.13600
C1063       C  0.30318895  0.58760146  0.59460467    -0.24100
H1064       H  0.28160948  0.53739780  0.65104809     0.14900
H1065       H  0.23828268  0.65345809  0.69681267     0.14900
C1066       C  0.22918521  0.60583987  0.76156523    -0.24100
H1067       H  0.31539188  0.56128054  0.59499355     0.05100
H1068       H  0.32413273  0.60733460  0.59599768     0.08300
H1069       H  0.28884465  0.59011767  0.56223160     0.08300
H1070       H  0.23180281  0.58305398  0.78481331     0.08300
H1071       H  0.20188230  0.61420096  0.75943045     0.08300
H1072       H  0.24445188  0.62719528  0.77709277     0.05100
C1073       C  0.26643224  0.90274230  0.62638606    -0.20700
C1074       C  0.25614789  0.86981002  0.64386390    -0.07300
C1075       C  0.24449930  0.86841010  0.68907941     0.13600
C1076       C  0.24175750  0.89968796  0.71393668    -0.20800
C1077       C  0.24977160  0.93290245  0.69523490    -0.07300
C1078       C  0.26331852  0.93397812  0.65105508     0.13600
C1079       C  0.27324512  0.96787302  0.62850186    -0.24100
H1080       H  0.27639947  0.90432062  0.59234431     0.14900
H1081       H  0.23214549  0.89829446  0.74816753     0.14900
C1082       C  0.23342829  0.83450610  0.71100826    -0.24100
H1083       H  0.28026828  0.96418507  0.59256999     0.05100
H1084       H  0.29615128  0.97875665  0.64572471     0.08300
H1085       H  0.25139691  0.98654769  0.62936017     0.08300
H1086       H  0.25551202  0.81613599  0.71310087     0.08300
H1087       H  0.21220415  0.82261049  0.69113687     0.08300
H1088       H  0.22402480  0.83849938  0.74590613     0.05100
C1089       C  0.38420408  0.61577921  0.48344510    -0.20700
C1090       C  0.38162237  0.64498312  0.51126698    -0.07300
C1091       C  0.40421801  0.64892045  0.54849299     0.13600
C1092       C  0.42874217  0.62304945  0.55731223    -0.20800
C1093       C  0.43130463  0.59385341  0.52950063    -0.07300
C1094       C  0.40922444  0.59029365  0.49162396     0.13600
C1095       C  0.41126511  0.56014965  0.45921374    -0.24100
H1096       H  0.36661888  0.61290355  0.45510597     0.14900
H1097       H  0.44572439  0.62523517  0.58636565     0.14900
C1098       C  0.40141067  0.67923330  0.58038382    -0.24100
H1099       H  0.38704941  0.54481118  0.46060305     0.05100
H1100       H  0.43304195  0.54220493  0.46639212     0.08300
H1101       H  0.41463076  0.57049038  0.42432417     0.08300
H1102       H  0.37499466  0.68029090  0.59403207     0.08300
H1103       H  0.40729468  0.70411531  0.56237521     0.08300
H1104       H  0.41963235  0.67675680  0.60932791     0.05100
C1105       C  0.12759985  0.58969007  0.57560966    -0.20700
C1106       C  0.10682001  0.57565714  0.54152175    -0.07300
C1107       C  0.11238491  0.58536301  0.49584954     0.13600
C1108       C  0.13665215  0.61126831  0.48588798    -0.20800
C1109       C  0.15699280  0.62561047  0.52008232    -0.07300
C1110       C  0.15346391  0.61379488  0.56515945     0.13600
C1111       C  0.17688204  0.62665021  0.60215584    -0.24100
H1112       H  0.12344578  0.58178637  0.61042828     0.14900
H1113       H  0.13978434  0.62020524  0.45130460     0.14900
C1114       C  0.09285307  0.56930336  0.45708996    -0.24100
H1115       H  0.20356972  0.61874255  0.59445424     0.05100
H1116       H  0.17013608  0.61520748  0.63558814     0.08300
H1117       H  0.17555479  0.65560039  0.60454751     0.08300
H1118       H  0.07496963  0.54833728  0.46803975     0.08300
H1119       H  0.11131449  0.55752989  0.43319859     0.08300
H1120       H  0.07780187  0.58990230  0.43902071     0.05100
C1121       C  0.11608233  0.84494281  0.55081069    -0.20700
C1122       C  0.13708022  0.85319724  0.51382328    -0.07300
C1123       C  0.13246351  0.88515278  0.49017820     0.13600
C1124       C  0.10725821  0.90841932  0.50477284    -0.20800
C1125       C  0.08722410  0.90080350  0.54283428    -0.07300
C1126       C  0.09139892  0.86856974  0.56606448     0.13600
C1127       C  0.07112653  0.85868459  0.60750905    -0.24100
H1128       H  0.11998388  0.82048714  0.56917919     0.14900
H1129       H  0.10345363  0.93308952  0.48690343     0.14900
C1130       C  0.15347913  0.89456334  0.44921793    -0.24100
H1131       H  0.05612646  0.83452168  0.60084009     0.05100
H1132       H  0.05301207  0.87940569  0.61796858     0.08300
H1133       H  0.08903205  0.85354148  0.63622302     0.08300
H1134       H  0.15078486  0.87380461  0.42346593     0.08300
H1135       H  0.18095121  0.89748104  0.45869618     0.08300
H1136       H  0.14496062  0.91973757  0.43361616     0.05100
C1137       C  0.37601318  0.87178548  0.56237290    -0.20700
C1138       C  0.35962529  0.87309532  0.52005380    -0.07300
C1139       C  0.36673763  0.90045963  0.48926276     0.13600
C1140       C  0.39304437  0.92400774  0.49970537    -0.20800
C1141       C  0.41104457  0.92114428  0.54077463    -0.07300
C1142       C  0.40138050  0.89611853  0.57347135     0.13600
C1143       C  0.41780883  0.89533134  0.61972275    -0.24100
H1144       H  0.36900207  0.85156940  0.58658318     0.14900
H1145       H  0.40029739  0.94408653  0.47541754     0.14900
C1146       C  0.34736846  0.90416781  0.44520720    -0.24100
H1147       H  0.40694506  0.87417730  0.64134841     0.05100
H1148       H  0.41329001  0.92073474  0.63660040     0.08300
H1149       H  0.44590158  0.89098569  0.61691697     0.08300
H1150       H  0.31970733  0.90862112  0.45200361     0.08300
H1151       H  0.35028661  0.88001505  0.42507301     0.08300
H1152       H  0.35685309  0.92668109  0.42476161     0.05100
C1153       C  0.13755192  0.75523102  0.30853296    -0.20700
C1154       C  0.13828622  0.73912899  0.35143263    -0.07300
C1155       C  0.10819843  0.72087993  0.36548509     0.13600
C1156       C  0.07748460  0.72405525  0.34027531    -0.20800
C1157       C  0.07539887  0.74365515  0.29979697    -0.07300
C1158       C  0.10732135  0.75561479  0.28141266     0.13600
C1159       C  0.11155924  0.76682479  0.23276161    -0.24100
H1160       H  0.16086770  0.76702201  0.29556787     0.14900
H1161       H  0.05497779  0.71030534  0.35225033     0.14900
C1162       C  0.10825456  0.69654165  0.40615403    -0.24100
H1163       H  0.13368214  0.75265185  0.21805576     0.05100
H1164       H  0.11675017  0.79538430  0.23075814     0.08300
H1165       H  0.08919442  0.76026026  0.21120512     0.08300
H1166       H  0.10913366  0.71162949  0.43792200     0.08300
H1167       H  0.13058319  0.67846207  0.40463758     0.08300
H1168       H  0.08469480  0.68016015  0.40741145     0.05100
C1169       C  0.43700468  0.77834529  0.33463974    -0.20700
C1170       C  0.44165891  0.75169760  0.30286807    -0.07300
C1171       C  0.41378301  0.72861397  0.29450671     0.13600
C1172       C  0.38268779  0.73231587  0.31871627    -0.20800
C1173       C  0.37874914  0.75798634  0.35202723    -0.07300
C1174       C  0.40623635  0.78190347  0.35903574     0.13600
C1175       C  0.40339718  0.81160868  0.39208308    -0.24100
H1176       H  0.45798744  0.79633595  0.34099675     0.14900
H1177       H  0.36205836  0.71370877  0.31347334     0.14900
C1178       C  0.41744465  0.69831822  0.26275741    -0.24100
H1179       H  0.42586958  0.82947868  0.39016687     0.05100
H1180       H  0.40234246  0.80141683  0.42725213     0.08300
H1181       H  0.37997687  0.82727812  0.38445582     0.08300
H1182       H  0.43990300  0.68204444  0.27300741     0.08300
H1183       H  0.42079962  0.70791515  0.22765276     0.08300
H1184       H  0.39433185  0.68126721  0.26304525     0.05100
C1185       C  0.25768146  0.90618815  0.37011078    -0.20700
C1186       C  0.25202962  0.87262411  0.35147444    -0.07300
C1187       C  0.24453473  0.87100123  0.30455585     0.13600
C1188       C  0.24257583  0.90232161  0.27858070    -0.20800
C1189       C  0.24740947  0.93568260  0.29776312    -0.07300
C1190       C  0.25511416  0.93736262  0.34433033     0.13600
C1191       C  0.25847912  0.97194582  0.36796682    -0.24100
H1192       H  0.26350627  0.90841104  0.40578543     0.14900
H1193       H  0.23638800  0.90082290  0.24289503     0.14900
C1194       C  0.23728607  0.83673385  0.28162471    -0.24100
H1195       H  0.26187932  0.96847095  0.40502927     0.05100
H1196       H  0.23488964  0.98772187  0.36214332     0.08300
H1197       H  0.28117572  0.98643414  0.35543178     0.08300
H1198       H  0.21512048  0.82352343  0.29795149     0.08300
H1199       H  0.26031311  0.81960847  0.28368308     0.08300
H1200       H  0.23078909  0.84053828  0.24529988     0.05100
C1201       C  0.28144374  0.61638403  0.32317425    -0.20700
C1202       C  0.25635999  0.62554518  0.35488377    -0.07300
C1203       C  0.22828916  0.60239555  0.36148455     0.13600
C1204       C  0.22595204  0.57122079  0.33667957    -0.20800
C1205       C  0.25079096  0.56184838  0.30485210    -0.07300
C1206       C  0.27887712  0.58502596  0.29795000     0.13600
C1207       C  0.30530928  0.57773718  0.26260042    -0.24100
H1208       H  0.30320877  0.63367677  0.31831956     0.14900
H1209       H  0.20399850  0.55415511  0.34154873     0.14900
C1210       C  0.19999719  0.61086081  0.39411699    -0.24100
H1211       H  0.32519645  0.59856242  0.26106292     0.05100
H1212       H  0.29245382  0.57665084  0.22913902     0.08300
H1213       H  0.31843242  0.55252581  0.27011041     0.08300
H1214       H  0.18879085  0.63690128  0.38566570     0.08300
H1215       H  0.21024910  0.61097998  0.42912964     0.08300
H1216       H  0.17897187  0.59121975  0.39293380     0.05100
O1217       O  0.76098364  0.18800838  0.36989366    -0.86900
O1218       O  0.76525694  0.18603494  0.62759721    -0.87100
O1219       O  0.82694662  0.15577606  0.50324797    -0.88700
O1220       O  0.71719771  0.14457193  0.50783065    -0.87500
O1221       O  0.67178684  0.18287870  0.50579094    -0.87100
O1222       O  0.86401958  0.20230743  0.50720432    -0.88500
O1223       O  0.77046451  0.14762446  0.56924347    -0.86900
O1224       O  0.76669498  0.14747257  0.42762224    -0.86500
Zr1225     Zr  0.76882783  0.17873797  0.49845043     2.84300
O1226       O  0.73176252  0.20908002  0.54593540    -1.08500
O1227       O  0.79944930  0.21659680  0.45144438    -1.09200
C1228       C  0.76267731  0.15596171  0.38564349     1.06200
C1229       C  0.76839415  0.15456778  0.61141657     1.06100
C1230       C  0.85694945  0.16944312  0.50869906     1.09100
C1231       C  0.68508299  0.15214025  0.50992694     1.06900
H1232       H  0.81451346  0.20250434  0.56523172     0.32500
O1233       O  0.79889240  0.21603406  0.54645047    -1.29500
H1234       H  0.71634043  0.19379821  0.43493790     0.32100
O1235       O  0.73038311  0.20979636  0.45214583    -1.31100
O1236       O  0.75923516  0.30543770  0.62968293    -0.86900
O1237       O  0.75702168  0.30798219  0.36957743    -0.88400
O1238       O  0.85774639  0.25707680  0.57302330    -0.87000
O1239       O  0.66486308  0.23936520  0.57036686    -0.87000
O1240       O  0.66382306  0.24070161  0.42969172    -0.86700
O1241       O  0.85866446  0.25547058  0.42763309    -0.86500
O1242       O  0.80684754  0.35200970  0.50676068    -0.86900
O1243       O  0.69831924  0.34047161  0.49927147    -0.86400
O1244       O  0.85185251  0.31325367  0.50876338    -0.87400
O1245       O  0.66093551  0.29419827  0.50069412    -0.86600
O1246       O  0.81941856  0.25025301  0.63106887    -0.87000
O1247       O  0.81943643  0.24958068  0.36963208    -0.86700
O1248       O  0.70106937  0.24436422  0.37040153    -0.86400
O1249       O  0.70332751  0.24145438  0.62912096    -0.86800
O1250       O  0.75476864  0.34569300  0.57181930    -0.87100
O1251       O  0.75408312  0.34714370  0.42748048    -0.88400
Zr1252     Zr  0.76174002  0.24644449  0.59478102     2.83100
Zr1253     Zr  0.76083986  0.24796031  0.40385128     2.83500
Zr1254     Zr  0.82938818  0.25440485  0.49974259     2.84100
Zr1255     Zr  0.69486227  0.24149833  0.49978837     2.83400
Zr1256     Zr  0.75571926  0.31662172  0.49935387     2.84200
O1257       O  0.72448624  0.27962538  0.45207874    -1.09000
O1258       O  0.79232791  0.28462187  0.54659772    -1.08500
C1259       C  0.75689100  0.33740407  0.61415830     1.06200
C1260       C  0.75492938  0.33974565  0.38512221     1.08800
C1261       C  0.85026986  0.25461895  0.61537840     1.06300
C1262       C  0.67221631  0.23907738  0.61269663     1.06700
C1263       C  0.67020234  0.24140944  0.38729545     1.06300
C1264       C  0.85066048  0.25302702  0.38539759     1.05800
C1265       C  0.83876964  0.34414187  0.51186219     1.06300
C1266       C  0.66804551  0.32705341  0.50055833     1.05800
H1267       H  0.80601894  0.30224508  0.43398569     0.32500
O1268       O  0.79258304  0.28601126  0.45172178    -1.30100
H1269       H  0.70914658  0.29261619  0.56520534     0.32500
O1270       O  0.72482131  0.27925082  0.54712451    -1.31500
N1271       N  0.95860812  0.00411305  0.56606500    -0.37000
N1272       N  0.51832224  0.05125528  0.55376159    -0.57600
N1273       N  0.56244598  0.99112803  0.54671106    -0.37000
N1274       N  0.50394096  0.44307608  0.54642014    -0.57600
C1275       C  0.94320175  0.03456778  0.57598748     0.26600
C1276       C  0.93677984  0.47581249  0.58026415     0.26600
C1277       C  0.58606994  0.01609710  0.55505382     0.26600
C1278       C  0.57763122  0.45978803  0.55000311     0.26600
C1279       C  0.99183941  0.07518134  0.56274500     0.35200
C1280       C  0.54809290  0.06793124  0.54519217     0.35200
C1281       C  0.97459896  0.42592293  0.56258414     0.35200
C1282       C  0.52849064  0.42129915  0.53163550     0.35200
C1283       C  0.90980009  0.02834029  0.58996383    -0.22300
C1284       C  0.90629793  0.48974344  0.59596932    -0.22300
C1285       C  0.61760106  0.00063929  0.56465012    -0.22300
C1286       C  0.61165474  0.46541123  0.56223743    -0.22300
C1287       C  0.00566418  0.10742347  0.55092326    -0.23400
C1288       C  0.54186593  0.10249500  0.53255552    -0.23400
C1289       C  0.98084288  0.39266046  0.54626343    -0.23400
C1290       C  0.51395696  0.39176738  0.51253464    -0.23400
C1291       C  0.95652924  0.06763695  0.56460546    -0.18700
C1292       C  0.94178080  0.44069201  0.56857196    -0.18700
C1293       C  0.56382061  0.42725773  0.53733045    -0.18700
C1294       C  0.58078172  0.05214152  0.54772235    -0.18700
H1295       H  0.89059346  0.04766243  0.59844212     0.14200
H1296       H  0.88318223  0.47561949  0.60495929     0.14200
H1297       H  0.64188917  0.01352788  0.57099487     0.14200
H1298       H  0.63153355  0.44589630  0.56745933     0.14200
H1299       H  0.99208748  0.13132645  0.54218873     0.12500
H1300       H  0.56043574  0.12256111  0.52409980     0.12500
H1301       H  0.96217157  0.37332633  0.53576764     0.12500
H1302       H  0.52712508  0.36961869  0.49809755     0.12500
H1303       H  0.98110717  0.00188117  0.54770283     0.25700
H1304       H  0.53869008  0.99513983  0.53146865     0.25700
O1305       O  0.98954864  0.44058147  0.86961749    -0.86900
O1306       O  0.98468532  0.43753248  0.12958422    -0.87100
O1307       O  0.53832585  0.39948098  0.98548355    -0.88700
O1308       O  0.92708927  0.40397988  0.99023666    -0.87500
O1309       O  0.88778393  0.44870255  0.99197568    -0.87100
O1310       O  0.58113855  0.44061108  0.98778966    -0.88500
O1311       O  0.98269507  0.39862494  0.07133635    -0.86900
O1312       O  0.98749108  0.40079840  0.92785265    -0.86500
Zr1313     Zr  0.98375603  0.42966849  0.99955897     2.84300
O1314       O  0.95067408  0.46511681  0.04616793    -1.08500
O1315       O  0.51891564  0.46423593  0.94788491    -1.09200
C1316       C  0.98929348  0.40857923  0.88563449     1.06200
C1317       C  0.98328771  0.40574415  0.11373725     1.06100
C1318       C  0.56991838  0.40918506  0.98342868     1.09100
C1319       C  0.89632325  0.41645172  0.98773674     1.06900
H1320       H  0.53536431  0.44675490  0.05892551     0.32500
O1321       O  0.52069896  0.46233183  0.04143360    -1.29500
H1322       H  0.93752123  0.45265129  0.93237540     0.32100
O1323       O  0.95214009  0.46658545  0.95147068    -1.31100
O1324       O  0.98857835  0.05904053  0.12416528    -0.86900
O1325       O  0.98807763  0.06179697  0.86564113    -0.88400
O1326       O  0.58548119  0.49654343  0.06547823    -0.87000
O1327       O  0.88877317  0.50156862  0.06883798    -0.87000
O1328       O  0.88724284  0.00777400  0.92218686    -0.86700
O1329       O  0.58405317  0.99577794  0.92275293    -0.86500
O1330       O  0.54778585  0.09507293  0.98956346    -0.86900
O1331       O  0.93739661  0.10144407  0.98771581    -0.86400
O1332       O  0.58784538  0.05101523  0.99120504    -0.87400
O1333       O  0.89288786  0.06220888  0.98891551    -0.86600
O1334       O  0.54653926  0.49835296  0.12354059    -0.87000
O1335       O  0.54399881  0.99909043  0.86536410    -0.86700
O1336       O  0.92651504  0.00370017  0.86462734    -0.86400
O1337       O  0.92752511  0.49820149  0.12782351    -0.86800
O1338       O  0.99130167  0.09884191  0.06604726    -0.87100
O1339       O  0.99067848  0.09979398  0.92482699    -0.88400
Zr1340     Zr  0.98650865  0.49780459  0.09492270     2.83100
Zr1341     Zr  0.98501202  0.00090618  0.89927044     2.83500
Zr1342     Zr  0.55465040  0.49727402  0.99410128     2.84100
Zr1343     Zr  0.91937588  0.50244341  0.99790907     2.83400
Zr1344     Zr  0.98962270  0.06818872  0.99527118     2.84200
O1345       O  0.95320064  0.03663243  0.94802451    -1.09000
O1346       O  0.52462381  0.03318228  0.04391026    -1.08500
C1347       C  0.99052031  0.09105858  0.10846786     1.06200
C1348       C  0.99019425  0.09330131  0.88231592     1.08800
C1349       C  0.57763996  0.49768721  0.10765365     1.06300
C1350       C  0.89642103  0.50015698  0.11126352     1.06700
C1351       C  0.89539825  0.00654694  0.88006908     1.06300
C1352       C  0.57545962  0.99691218  0.88055491     1.05800
C1353       C  0.57881428  0.08321768  0.98720332     1.06300
C1354       C  0.90546648  0.09327888  0.98504348     1.05800
H1355       H  0.53714642  0.04754584  0.92999405     0.32500
O1356       O  0.52244586  0.03328429  0.94874031    -1.30100
H1357       H  0.93910899  0.05225813  0.05994422     0.32500
O1358       O  0.95281993  0.03643447  0.04227187    -1.31500
N1359       N  0.68424130  0.24664808  0.92809462    -0.37000
N1360       N  0.73290053  0.30380443  0.92777534    -0.57600
N1361       N  0.78933461  0.25571239  0.93066251    -0.37000
N1362       N  0.74093572  0.19869245  0.92916943    -0.57600
C1363       C  0.66419441  0.27357938  0.94071062     0.26600
C1364       C  0.66885661  0.21706118  0.94299503     0.26600
C1365       C  0.80460819  0.28528346  0.94501891     0.26600
C1366       C  0.80895608  0.22885862  0.94564584     0.26600
C1367       C  0.70371798  0.32200154  0.92083214     0.35200
C1368       C  0.75881639  0.32689679  0.92318581     0.35200
C1369       C  0.71513523  0.17562336  0.92416180     0.35200
C1370       C  0.77021753  0.18064279  0.92368984     0.35200
C1371       C  0.63531577  0.26099266  0.96276113    -0.22300
C1372       C  0.63820740  0.22522018  0.96406515    -0.22300
C1373       C  0.83459701  0.27720761  0.96859143    -0.22300
C1374       C  0.83732822  0.24144301  0.96903578    -0.22300
C1375       C  0.71112901  0.35672311  0.91081003    -0.23400
C1376       C  0.74624467  0.35985966  0.91221174    -0.23400
C1377       C  0.72790479  0.14278143  0.91406769    -0.23400
C1378       C  0.76306270  0.14601830  0.91345576    -0.23400
C1379       C  0.67103180  0.30918777  0.93211342    -0.18700
C1380       C  0.68131473  0.18284240  0.93694291    -0.18700
C1381       C  0.80237073  0.19334139  0.93753531    -0.18700
C1382       C  0.79282515  0.31941028  0.93578598    -0.18700
H1383       H  0.61438455  0.27600089  0.97667290     0.14200
H1384       H  0.61990560  0.20731857  0.97910719     0.14200
H1385       H  0.85257432  0.29517498  0.98404801     0.14200
H1386       H  0.85781269  0.22644675  0.98491762     0.14200
H1387       H  0.69298852  0.37790242  0.90615724     0.12500
H1388       H  0.76070376  0.38390242  0.90827107     0.12500
H1389       H  0.71353234  0.11871215  0.91031331     0.12500
H1390       H  0.78128498  0.12485994  0.90944933     0.12500
H1391       H  0.70563098  0.24830772  0.90728466     0.25700
H1392       H  0.76861181  0.25406264  0.90831499     0.25700
C1393       C  0.54064472  0.24625176  0.28027992     0.86100
C1394       C  0.53658469  0.21580155  0.24774861    -0.54200
C1395       C  0.00813058  0.21550036  0.22134562     0.09000
C1396       C  0.98409497  0.24700801  0.23218199     0.19900
C1397       C  0.53571677  0.27972592  0.25161614    -0.54900
C1398       C  0.00604254  0.28104834  0.22784963     0.09100
C1399       C  0.00805618  0.24318350  0.30814734    -0.54400
C1400       C  0.97799972  0.24393273  0.28344058     0.09700
H1401       H  0.55548092  0.19493384  0.24543183     0.14200
H1402       H  0.95994680  0.24776133  0.21206136    -0.00100
H1403       H  0.55417802  0.30097602  0.25179387     0.14500
H1404       H  0.00775084  0.24353291  0.34476422     0.14300
C1405       C  0.70528615  0.50020474  0.21718693     0.86100
C1406       C  0.70866232  0.46837803  0.24901552    -0.54200
C1407       C  0.73881104  0.46617894  0.27265596     0.09000
C1408       C  0.76312399  0.49783732  0.26395739     0.19900
C1409       C  0.71184133  0.03218784  0.24952572    -0.54900
C1410       C  0.74180915  0.03186361  0.27400393     0.09100
C1411       C  0.73815770  0.49996761  0.18822787    -0.54400
C1412       C  0.76838137  0.49799493  0.21228466     0.09700
H1413       H  0.68862664  0.44877304  0.25258098     0.14200
H1414       H  0.78759403  0.49690886  0.28337642    -0.00100
H1415       H  0.69491369  0.05449282  0.25163592     0.14500
H1416       H  0.73763460  0.50195724  0.15163058     0.14300
C1417       C  0.54548570  0.24805497  0.71973944     0.86100
C1418       C  0.54137793  0.28233586  0.74596076    -0.54200
C1419       C  0.01034304  0.28744025  0.76869525     0.09000
C1420       C  0.98659461  0.25475591  0.76364621     0.19900
C1421       C  0.53971441  0.21871714  0.75400042    -0.54900
C1422       C  0.00868693  0.22198068  0.77629963     0.09100
C1423       C  0.01189223  0.24952321  0.68932741    -0.54400
C1424       C  0.98138662  0.25249646  0.71217625     0.09700
H1425       H  0.56065894  0.30280859  0.74584094     0.14200
H1426       H  0.96210982  0.25649978  0.78247966    -0.00100
H1427       H  0.55761326  0.19708470  0.75870585     0.14500
H1428       H  0.01253518  0.24739156  0.65293080     0.14300
C1429       C  0.70502508  0.49630417  0.77587412     0.86100
C1430       C  0.70817877  0.02923636  0.74031948    -0.54200
C1431       C  0.73931558  0.03011474  0.71915018     0.09000
C1432       C  0.76407324  0.49623609  0.73324297     0.19900
C1433       C  0.70960888  0.46578196  0.74345052    -0.54900
C1434       C  0.74040519  0.46437863  0.72170156     0.09100
C1435       C  0.73726687  0.49531256  0.80727303    -0.54400
C1436       C  0.76806611  0.49466427  0.78494158     0.09700
H1437       H  0.69057755  0.05104314  0.73689143     0.14200
H1438       H  0.78934314  0.49640629  0.71637637    -0.00100
H1439       H  0.69010018  0.44565098  0.73966668     0.14500
H1440       H  0.73581633  0.49553429  0.84387319     0.14300
C1441       C  0.63154000  0.47061105  0.13599483    -0.20700
C1442       C  0.60758499  0.49786559  0.13921607    -0.07300
C1443       C  0.61478359  0.02399033  0.17171262     0.13600
C1444       C  0.64584556  0.02435314  0.19637271    -0.20800
C1445       C  0.67126119  0.49924845  0.18903445    -0.07300
C1446       C  0.66312895  0.47082764  0.15968291     0.13600
C1447       C  0.68732582  0.44047968  0.15166243    -0.24100
H1448       H  0.62564729  0.44911140  0.11368100     0.14900
H1449       H  0.64878771  0.04545772  0.21973788     0.14900
C1450       C  0.59032593  0.05424125  0.17801282    -0.24100
H1451       H  0.67629997  0.42149540  0.12740913     0.05100
H1452       H  0.69254412  0.42550916  0.18313149     0.08300
H1453       H  0.71173965  0.44970853  0.13684898     0.08300
H1454       H  0.56747115  0.05345072  0.15561292     0.08300
H1455       H  0.60387572  0.07923684  0.17071397     0.08300
H1456       H  0.58138162  0.05446328  0.21352603     0.05100
C1457       C  0.85840045  0.47270501  0.17021721    -0.20700
C1458       C  0.86619936  0.50147887  0.14206916    -0.07300
C1459       C  0.84234030  0.03201117  0.13869658     0.13600
C1460       C  0.81133041  0.02964896  0.16270522    -0.20800
C1461       C  0.80281462  0.49857701  0.18979378    -0.07300
C1462       C  0.82693520  0.47083436  0.19389396     0.13600
C1463       C  0.81865794  0.43826647  0.22076670    -0.24100
H1464       H  0.87624817  0.45092257  0.17204144     0.14900
H1465       H  0.79251439  0.05047941  0.15930607     0.14900
C1466       C  0.84899336  0.06420008  0.11026184    -0.24100
H1467       H  0.83937288  0.41836018  0.21842453     0.05100
H1468       H  0.79454175  0.42645328  0.20767522     0.08300
H1469       H  0.81553601  0.44475237  0.25689514     0.08300
H1470       H  0.85033724  0.05698461  0.07418378     0.08300
H1471       H  0.87359679  0.07646956  0.12084829     0.08300
H1472       H  0.82826308  0.08399417  0.11365681     0.05100
C1473       C  0.48252237  0.31005997  0.15623848    -0.20700
C1474       C  0.99496595  0.31401988  0.20275389    -0.07300
C1475       C  0.00114144  0.34849137  0.21895767     0.13600
C1476       C  0.99653709  0.37780419  0.18985733    -0.20800
C1477       C  0.98380844  0.37434100  0.14551549    -0.07300
C1478       C  0.47860304  0.33867448  0.12592232     0.13600
C1479       C  0.46419421  0.33078332  0.07958092    -0.24100
H1480       H  0.47560589  0.28410120  0.14519479     0.14900
H1481       H  0.00309564  0.40361474  0.20211966     0.14900
C1482       C  0.01067942  0.35579259  0.26741215    -0.24100
H1483       H  0.45598638  0.30303188  0.07662796     0.05100
H1484       H  0.48407343  0.33521716  0.05345980     0.08300
H1485       H  0.44128187  0.34737458  0.07253753     0.08300
H1486       H  0.03731963  0.36609384  0.26925221     0.08300
H1487       H  0.00829659  0.33246931  0.28973424     0.08300
H1488       H  0.99288482  0.37573590  0.28108004     0.05100
C1489       C  0.99326573  0.15628674  0.11958547    -0.20700
C1490       C  0.99224284  0.12235207  0.13962394    -0.07300
C1491       C  0.49084142  0.12067701  0.18919167     0.13600
C1492       C  0.49375641  0.15183725  0.21457336    -0.20800
C1493       C  0.99959377  0.18463288  0.19239893    -0.07300
C1494       C  0.99788995  0.18690797  0.14492375     0.13600
C1495       C  0.00325469  0.22081323  0.11948762    -0.24100
H1496       H  0.99195724  0.15929673  0.08318225     0.14900
H1497       H  0.49332506  0.15021918  0.25112219     0.14900
C1498       C  0.48614977  0.08643967  0.21411125    -0.24100
H1499       H  0.02377216  0.21737961  0.09405059     0.05100
H1500       H  0.01167723  0.24229858  0.14169248     0.08300
H1501       H  0.97909168  0.22852181  0.10182405     0.08300
H1502       H  0.50825859  0.06886535  0.20761333     0.08300
H1503       H  0.46187132  0.07379659  0.20299803     0.08300
H1504       H  0.48470347  0.09017675  0.25120016     0.05100
C1505       C  0.58986096  0.36343627  0.93272158    -0.20700
C1506       C  0.59514716  0.38258269  0.97235581    -0.07300
C1507       C  0.62522682  0.37773038  0.99845417     0.13600
C1508       C  0.64949955  0.35346281  0.98426714    -0.20800
C1509       C  0.64455653  0.33480293  0.94426297    -0.07300
C1510       C  0.61454798  0.33965941  0.91802504     0.13600
C1511       C  0.60897402  0.32038774  0.87439132    -0.24100
H1512       H  0.56680310  0.36786488  0.91261272     0.14900
H1513       H  0.67258990  0.34900870  0.00427659     0.14900
C1514       C  0.63147631  0.39745705  0.04155283    -0.24100
H1515       H  0.58444322  0.32814033  0.85759436     0.05100
H1516       H  0.60806159  0.29173550  0.88089907     0.08300
H1517       H  0.63031392  0.32631096  0.85083846     0.08300
H1518       H  0.60976532  0.39307827  0.06506118     0.08300
H1519       H  0.63406611  0.42587301  0.03414322     0.08300
H1520       H  0.65547124  0.38870949  0.05882309     0.05100
C1521       C  0.87149436  0.37626334  0.93304547    -0.20700
C1522       C  0.86888283  0.39263719  0.97496376    -0.07300
C1523       C  0.83919450  0.38837424  0.00136201     0.13600
C1524       C  0.81337325  0.36584535  0.98617333    -0.20800
C1525       C  0.81665909  0.34834176  0.94503207    -0.07300
C1526       C  0.84553958  0.35423197  0.91751991     0.13600
C1527       C  0.84989048  0.33725208  0.87218703    -0.24100
H1528       H  0.89371063  0.38111321  0.91199860     0.14900
H1529       H  0.79117843  0.36074466  0.00714699     0.14900
C1530       C  0.83534616  0.40650544  0.04603013    -0.24100
H1531       H  0.87304895  0.32024458  0.87300193     0.05100
H1532       H  0.85329278  0.35781840  0.84581865     0.08300
H1533       H  0.82745757  0.32111285  0.86222466     0.08300
H1534       H  0.83485718  0.43532959  0.04079578     0.08300
H1535       H  0.85718582  0.39942620  0.06872658     0.08300
H1536       H  0.81112201  0.39890410  0.06311663     0.05100
C1537       C  0.85800506  0.16515703  0.92336176    -0.20700
C1538       C  0.82903916  0.16801782  0.95063951    -0.07300
C1539       C  0.82691572  0.14914101  0.99172899     0.13600
C1540       C  0.85279144  0.12523662  0.00271860    -0.20800
C1541       C  0.88129050  0.12142546  0.97480986    -0.07300
C1542       C  0.88471037  0.14248193  0.93551048     0.13600
C1543       C  0.91592953  0.14068906  0.90589633    -0.24100
H1544       H  0.85974675  0.18099017  0.89282677     0.14900
H1545       H  0.85100048  0.10973800  0.03335916     0.14900
C1546       C  0.79802057  0.15495316  0.02447089    -0.24100
H1547       H  0.91355248  0.15812670  0.87573948     0.05100
H1548       H  0.91961407  0.11351542  0.89400788     0.08300
H1549       H  0.93891875  0.14918265  0.92527776     0.08300
H1550       H  0.77305116  0.14779813  0.00884258     0.08300
H1551       H  0.79736498  0.18292930  0.03430308     0.08300
H1552       H  0.80131104  0.13888592  0.05571931     0.05100
C1553       C  0.63089270  0.11725439  0.00614238    -0.20700
C1554       C  0.60592810  0.10769198  0.97437980    -0.07300
C1555       C  0.60888486  0.11884278  0.92898142     0.13600
C1556       C  0.63462122  0.14255929  0.91719944    -0.20800
C1557       C  0.65853373  0.15361883  0.94938492    -0.07300
C1558       C  0.65762025  0.13993221  0.99399052     0.13600
C1559       C  0.68401607  0.14909368  0.02946526    -0.24100
H1560       H  0.62946390  0.10710137  0.04043393     0.14900
H1561       H  0.63604450  0.15271789  0.88291094     0.14900
C1562       C  0.58580305  0.10452885  0.89272598    -0.24100
H1563       H  0.69698358  0.12479436  0.04160359     0.05100
H1564       H  0.67116223  0.16170986  0.05840419     0.08300
H1565       H  0.70411217  0.16716489  0.01681596     0.08300
H1566       H  0.55878881  0.11032806  0.90077022     0.04100
H1567       H  0.58930791  0.07573318  0.89124086     0.08300
H1568       H  0.59155860  0.11592664  0.85893948     0.05100
C1569       C  0.85444390  0.97477429  0.83062792    -0.20700
C1570       C  0.86571387  0.00682853  0.84806444    -0.07300
C1571       C  0.84472941  0.03686454  0.84184317     0.13600
C1572       C  0.81437012  0.52814490  0.82439851    -0.20800
C1573       C  0.80239421  0.49596698  0.80816162    -0.07300
C1574       C  0.82242755  0.97177707  0.80841605     0.13600
C1575       C  0.81093441  0.93652487  0.79199895    -0.24100
H1576       H  0.87006109  0.95159026  0.83631921     0.14900
H1577       H  0.79831609  0.55117099  0.82014887     0.14900
C1578       C  0.85771529  0.56598870  0.86420959    -0.24100
H1579       H  0.82995634  0.91570275  0.80037734     0.05100
H1580       H  0.80771358  0.93750819  0.75477224     0.08300
H1581       H  0.78707540  0.42369419  0.81294688     0.08300
H1582       H  0.88086958  0.07934290  0.84389130     0.08300
H1583       H  0.86116381  0.56453115  0.90141929     0.08300
H1584       H  0.83853611  0.58682792  0.85655555     0.05100
C1585       C  0.64015933  0.01764080  0.78659654    -0.20700
C1586       C  0.66981944  0.49394734  0.80058006    -0.07300
C1587       C  0.66296178  0.46805931  0.83448361     0.13600
C1588       C  0.63194978  0.46912688  0.85877252    -0.20800
C1589       C  0.60511081  0.99514248  0.84858616    -0.07300
C1590       C  0.60857102  0.01688481  0.81000930     0.13600
C1591       C  0.57914250  0.03933738  0.79321137    -0.24100
H1592       H  0.64146240  0.03430289  0.75708773     0.14900
H1593       H  0.62813514  0.45048354  0.88621602     0.14900
C1594       C  0.68688382  0.43808742  0.84604742    -0.24100
H1595       H  0.58640997  0.05546191  0.76333498     0.05100
H1596       H  0.57511609  0.55797048  0.82360155     0.08300
H1597       H  0.55730147  0.02237089  0.78313265     0.08300
H1598       H  0.70957285  0.43612567  0.82413825     0.08300
H1599       H  0.67483623  0.91743012  0.84501121     0.08300
H1600       H  0.69587953  0.44048020  0.88155530     0.05100
C1601       C  0.50707380  0.15618338  0.87441587    -0.20700
C1602       C  0.99323665  0.12585378  0.85287272    -0.07300
C1603       C  0.98188765  0.12877385  0.80735590     0.13600
C1604       C  0.98433223  0.16147395  0.78429544    -0.20800
C1605       C  0.99850085  0.19132394  0.80503598    -0.07300
C1606       C  0.51071671  0.18785186  0.85047793     0.13600
C1607       C  0.52812772  0.21846618  0.87287160    -0.24100
H1608       H  0.51619493  0.15531848  0.90907189     0.14900
H1609       H  0.97656337  0.16340545  0.74911127     0.14900
C1610       C  0.96749694  0.09774282  0.78273488    -0.24100
H1611       H  0.53618779  0.21214573  0.90810612     0.05100
H1612       H  0.51019757  0.24098846  0.87383488     0.08300
H1613       H  0.55142422  0.22614422  0.85374400     0.08300
H1614       H  0.94472007  0.08740166  0.80086106     0.08300
H1615       H  0.98739612  0.07699125  0.78052998     0.08300
H1616       H  0.95937832  0.10480475  0.74774872     0.05100
C1617       C  0.00410027  0.38286364  0.81013926    -0.20700
C1618       C  0.99183764  0.37776332  0.85426467    -0.07300
C1619       C  0.47858065  0.34323710  0.86297934     0.13600
C1620       C  0.48488646  0.31459165  0.83476924    -0.20800
C1621       C  0.00157563  0.31973653  0.79499113    -0.07300
C1622       C  0.00882184  0.35467203  0.78030532     0.13600
C1623       C  0.02039370  0.36395124  0.73314201    -0.24100
H1624       H  0.01042194  0.40913758  0.79870379     0.14900
H1625       H  0.47774151  0.28859863  0.84615930     0.14900
C1626       C  0.46027852  0.33573429  0.90687514    -0.24100
H1627       H  0.00274698  0.38389144  0.71819751     0.05100
H1628       H  0.02024102  0.34154917  0.70992504     0.08300
H1629       H  0.04674519  0.37506358  0.73444781     0.08300
H1630       H  0.94652433  0.34900899  0.92165463     0.08300
H1631       H  0.47807917  0.33903701  0.93597695     0.08300
H1632       H  0.45058708  0.30840005  0.90877551     0.05100
C1633       C  0.90717204  0.28005166  0.63348522    -0.20700
C1634       C  0.88069902  0.25713165  0.64655937    -0.07300
C1635       C  0.88660480  0.23455460  0.68415690     0.13600
C1636       C  0.91955234  0.23370117  0.70492967    -0.20800
C1637       C  0.94665838  0.25517554  0.68963878    -0.07300
C1638       C  0.93960864  0.27979698  0.65458002     0.13600
C1639       C  0.96537606  0.30708154  0.64003655    -0.24100
H1640       H  0.90265649  0.29802045  0.60548189     0.14900
H1641       H  0.92440126  0.21559593  0.73271371     0.14900
C1642       C  0.85882498  0.21067950  0.70173033    -0.24100
H1643       H  0.95438806  0.32548614  0.61445277     0.05100
H1644       H  0.98805356  0.29492587  0.62431579     0.08300
H1645       H  0.97330413  0.32264416  0.66966179     0.08300
H1646       H  0.84967930  0.19292813  0.67484047     0.08300
H1647       H  0.83688512  0.22657077  0.71370031     0.08300
H1648       H  0.86813171  0.19423164  0.73050197     0.05100
C1649       C  0.58084526  0.22372832  0.65563516    -0.20700
C1650       C  0.58030438  0.24336912  0.69547712    -0.07300
C1651       C  0.61282102  0.25459896  0.71303634     0.13600
C1652       C  0.64240628  0.25289084  0.68570014    -0.20800
C1653       C  0.64165442  0.23684855  0.64327293    -0.07300
C1654       C  0.61057137  0.22017604  0.62955874     0.13600
C1655       C  0.60806263  0.19770695  0.58791476    -0.24100
H1656       H  0.55778841  0.21046370  0.64458999     0.14900
H1657       H  0.66635352  0.26389465  0.69798359     0.14900
C1658       C  0.61834106  0.26659211  0.76094907    -0.24100
H1659       H  0.58338142  0.18314680  0.58621784     0.05100
H1660       H  0.62895151  0.17802015  0.58829235     0.08300
H1661       H  0.60937699  0.21407852  0.55681343     0.08300
H1662       H  0.64076950  0.25259334  0.77601156     0.08300
H1663       H  0.59648032  0.26047961  0.78333586     0.08300
H1664       H  0.62374707  0.29514414  0.76120698     0.05100
C1665       C  0.77032891  0.05967272  0.65552857    -0.20700
C1666       C  0.75221668  0.06272585  0.69593188    -0.07300
C1667       C  0.74613944  0.09696857  0.71270491     0.13600
C1668       C  0.75250198  0.12641739  0.68506703    -0.20800
C1669       C  0.76750385  0.12320939  0.64241116    -0.07300
C1670       C  0.77852492  0.08919610  0.62883015     0.13600
C1671       C  0.79909164  0.08315420  0.58649861    -0.24100
H1672       H  0.77745453  0.03393542  0.64398147     0.14900
H1673       H  0.74543755  0.15212653  0.69710007     0.14900
C1674       C  0.73478862  0.10390837  0.76037565    -0.24100
H1675       H  0.80906758  0.05592009  0.58501463     0.05100
H1676       H  0.82161149  0.10101296  0.58568453     0.08300
H1677       H  0.78281980  0.08717952  0.55594520     0.08300
H1678       H  0.73569272  0.08031678  0.78240970     0.08300
H1679       H  0.70839063  0.11495800  0.76000475     0.08300
H1680       H  0.75247850  0.12315718  0.77610762     0.05100
C1681       C  0.76850829  0.40054958  0.62875626    -0.20700
C1682       C  0.75684506  0.36806185  0.64577294    -0.07300
C1683       C  0.74308144  0.36717707  0.68989157     0.13600
C1684       C  0.74053024  0.39858947  0.71455948    -0.20800
C1685       C  0.74998925  0.43156622  0.69612957    -0.07300
C1686       C  0.76464956  0.43202366  0.65254820     0.13600
C1687       C  0.77401800  0.46555235  0.62892044    -0.24100
H1688       H  0.77968695  0.40165592  0.59534843     0.14900
H1689       H  0.72979231  0.39750157  0.74820555     0.14900
C1690       C  0.72932626  0.33378668  0.71043241    -0.24100
H1691       H  0.78229870  0.46120114  0.59359980     0.05100
H1692       H  0.79587504  0.47803173  0.64659893     0.08300
H1693       H  0.75113082  0.48287151  0.62753539     0.08300
H1694       H  0.75036783  0.31434563  0.71444571     0.08300
H1695       H  0.70874922  0.32295664  0.68844886     0.08300
H1696       H  0.71817769  0.33817447  0.74433085     0.05100
C1697       C  0.89184268  0.11745221  0.49295145    -0.20700
C1698       C  0.88481731  0.14559302  0.52112186    -0.07300
C1699       C  0.90188925  0.14851897  0.56325881     0.13600
C1700       C  0.92519911  0.12262856  0.57672511    -0.20800
C1701       C  0.93210009  0.09444496  0.54864142    -0.07300
C1702       C  0.91585715  0.09201261  0.50582529     0.13600
C1703       C  0.92325128  0.06317219  0.47287630    -0.24100
H1704       H  0.87851395  0.11534131  0.46077654     0.14900
H1705       H  0.93800165  0.12415284  0.60931928     0.14900
C1706       C  0.89457081  0.17799613  0.59495075    -0.24100
H1707       H  0.89946728  0.04783327  0.46673438     0.05100
H1708       H  0.94362562  0.04492234  0.48466996     0.08300
H1709       H  0.93188708  0.07485269  0.44037992     0.08300
H1710       H  0.86669624  0.17862556  0.60227124     0.08300
H1711       H  0.90262910  0.20316329  0.57930140     0.08300
H1712       H  0.90872753  0.17492115  0.62748761     0.05100
C1713       C  0.63165071  0.08590398  0.57202584    -0.20700
C1714       C  0.61071934  0.07399120  0.53677035    -0.07300
C1715       C  0.61661492  0.08528698  0.49185985     0.13600
C1716       C  0.64103886  0.11123121  0.48397772    -0.20800
C1717       C  0.66155385  0.12353167  0.51921751    -0.07300
C1718       C  0.65798696  0.10982628  0.56336842     0.13600
C1719       C  0.68180085  0.12047013  0.60110159    -0.24100
H1720       H  0.62721424  0.07656629  0.60620430     0.14900
H1721       H  0.64405599  0.12188972  0.45021445     0.14900
C1722       C  0.59713318  0.07105315  0.45184383    -0.24100
H1723       H  0.70820312  0.11211495  0.59261508     0.05100
H1724       H  0.67481101  0.10785395  0.63374910     0.08300
H1725       H  0.68137742  0.14928782  0.60550121     0.08300
H1726       H  0.57940149  0.04946081  0.46104892     0.08300
H1727       H  0.61564640  0.06059169  0.42701217     0.08300
H1728       H  0.58196396  0.09239008  0.43549291     0.05100
C1729       C  0.61733109  0.34482217  0.54228483    -0.20700
C1730       C  0.63934560  0.35101199  0.50582400    -0.07300
C1731       C  0.63496784  0.38085117  0.47792575     0.13600
C1732       C  0.60873938  0.40436454  0.48797563    -0.20800
C1733       C  0.58804465  0.39922927  0.52606848    -0.07300
C1734       C  0.59208842  0.36903321  0.55349575     0.13600
C1735       C  0.57145590  0.36221550  0.59562953    -0.24100
H1736       H  0.62113034  0.32187320  0.56372017     0.14900
H1737       H  0.60508630  0.42761561  0.46710158     0.14900
C1738       C  0.65764409  0.38790722  0.43772705    -0.24100
H1739       H  0.55664881  0.33755476  0.59181682     0.05100
H1740       H  0.55315909  0.38352723  0.60325980     0.08300
H1741       H  0.58912472  0.35936071  0.62509214     0.08300
H1742       H  0.65683254  0.36524348  0.41456756     0.08300
H1743       H  0.68452803  0.39243757  0.44895849     0.08300
H1744       H  0.64918445  0.41154799  0.41844281     0.05100
C1745       C  0.87478420  0.36949092  0.57095859    -0.20700
C1746       C  0.86194292  0.37189167  0.52664484    -0.07300
C1747       C  0.87184337  0.39982451  0.49819072     0.13600
C1748       C  0.89690623  0.42326571  0.51368415    -0.20800
C1749       C  0.91139505  0.41939163  0.55707377    -0.07300
C1750       C  0.89928004  0.39323882  0.58672235     0.13600
C1751       C  0.91233642  0.39044757  0.63466092    -0.24100
H1752       H  0.86574004  0.34873509  0.59313302     0.14900
H1753       H  0.90616969  0.44389054  0.49145455     0.14900
C1754       C  0.85687942  0.40412508  0.45138099    -0.24100
H1755       H  0.90013783  0.36835745  0.65325941     0.05100
H1756       H  0.90648465  0.41505442  0.65270448     0.08300
H1757       H  0.94054269  0.38621885  0.63508136     0.08300
H1758       H  0.82864335  0.40792120  0.45344007     0.08300
H1759       H  0.86229340  0.38042362  0.43124840     0.08300
H1760       H  0.86791046  0.42717238  0.43345004     0.05100
C1761       C  0.63806273  0.25414747  0.31420789    -0.20700
C1762       C  0.63856243  0.23909094  0.35761905    -0.07300
C1763       C  0.60770312  0.22281188  0.37313688     0.13600
C1764       C  0.57701961  0.22625994  0.34791406    -0.20800
C1765       C  0.57563752  0.24383707  0.30595491    -0.07300
C1766       C  0.60786164  0.25459196  0.28718584     0.13600
C1767       C  0.61245163  0.26487728  0.23826683    -0.24100
H1768       H  0.66165746  0.26488415  0.30062656     0.14900
H1769       H  0.55407874  0.21387437  0.36083180     0.14900
C1770       C  0.60673150  0.20002891  0.41527525    -0.24100
H1771       H  0.63506781  0.25096071  0.22446462     0.05100
H1772       H  0.61703944  0.29351031  0.23541563     0.08300
H1773       H  0.59053822  0.25731802  0.21648482     0.08300
H1774       H  0.60875268  0.21618424  0.44607606     0.08300
H1775       H  0.62792357  0.18055449  0.41453498     0.08300
H1776       H  0.58228546  0.18516326  0.41792443     0.05100
C1777       C  0.93796020  0.27543691  0.33433826    -0.20700
C1778       C  0.94336394  0.24735336  0.30507830    -0.07300
C1779       C  0.91638041  0.22294311  0.29860555     0.13600
C1780       C  0.88529373  0.22660763  0.32275780    -0.20800
C1781       C  0.88063555  0.25380824  0.35384549    -0.07300
C1782       C  0.90728895  0.27893492  0.35880966     0.13600
C1783       C  0.90363050  0.30979551  0.38986083    -0.24100
H1784       H  0.95831579  0.29450025  0.33877653     0.14900
H1785       H  0.86529044  0.20707438  0.31915569     0.14900
C1786       C  0.92101941  0.19184526  0.26841843    -0.24100
H1787       H  0.92547786  0.32832884  0.38650255     0.05100
H1788       H  0.90309008  0.30091279  0.42563131     0.08300
H1789       H  0.87964044  0.32432463  0.38153163     0.08300
H1790       H  0.94357263  0.17628323  0.28005238     0.08300
H1791       H  0.92499920  0.20065341  0.23305272     0.08300
H1792       H  0.89816532  0.17443815  0.26883169     0.05100
C1793       C  0.75674282  0.40491736  0.37303265    -0.20700
C1794       C  0.75343892  0.37124712  0.35368784    -0.07300
C1795       C  0.74739864  0.36956636  0.30640684     0.13600
C1796       C  0.74423635  0.40094208  0.28084761    -0.20800
C1797       C  0.74680836  0.43423318  0.30078155    -0.07300
C1798       C  0.75306453  0.43605035  0.34755970     0.13600
C1799       C  0.75379799  0.47072357  0.37139536    -0.24100
H1800       H  0.76151486  0.40726981  0.40895541     0.14900
H1801       H  0.73897716  0.39953333  0.24490520     0.14900
C1802       C  0.74328290  0.33517072  0.28249914    -0.24100
H1803       H  0.75697817  0.46735729  0.40850415     0.05100
H1804       H  0.72930883  0.48496335  0.36505948     0.08300
H1805       H  0.77557075  0.48680631  0.35913376     0.08300
H1806       H  0.72133533  0.32036506  0.29696308     0.08300
H1807       H  0.76725190  0.31955627  0.28595859     0.08300
H1808       H  0.73807584  0.33897345  0.24582876     0.05100
C1809       C  0.78401560  0.11355015  0.32741561    -0.20700
C1810       C  0.75730460  0.12564171  0.35481198    -0.07300
C1811       C  0.72677684  0.10564431  0.35732502     0.13600
C1812       C  0.72370157  0.07435856  0.33290462    -0.20800
C1813       C  0.75005172  0.06222144  0.30472425    -0.07300
C1814       C  0.78063080  0.08245378  0.30194078     0.13600
C1815       C  0.80908045  0.07268072  0.27050271    -0.24100
H1816       H  0.80765871  0.12848832  0.32598742     0.14900
H1817       H  0.70002975  0.05949541  0.33512194     0.14900
C1818       C  0.69697111  0.11763005  0.38539674    -0.24100
H1819       H  0.83027280  0.09214298  0.27105058     0.05100
H1820       H  0.79880284  0.07179227  0.23558037     0.08300
H1821       H  0.82016627  0.04697314  0.28036643     0.08300
H1822       H  0.68861065  0.14415095  0.37407256     0.08300
H1823       H  0.70475955  0.11848472  0.42145821     0.08300
H1824       H  0.67461549  0.09969687  0.38244450     0.05100
O1825       O  0.75960394  0.68679399  0.36970585    -0.86900
O1826       O  0.76416838  0.68699480  0.62968756    -0.87100
O1827       O  0.82382954  0.65422892  0.50449120    -0.88700
O1828       O  0.71492679  0.64507092  0.50832077    -0.87500
O1829       O  0.66984315  0.68371571  0.50528197    -0.87100
O1830       O  0.86159061  0.70018326  0.50685930    -0.88500
O1831       O  0.76784374  0.64852841  0.57132046    -0.86900
O1832       O  0.76450661  0.64698415  0.42834282    -0.86500
Zr1833     Zr  0.76669494  0.67859498  0.49918403     2.84300
O1834       O  0.73015283  0.70969075  0.54635090    -1.08500
O1835       O  0.79759469  0.71558470  0.45111992    -1.09200
C1836       C  0.76080471  0.65485323  0.38606940     1.06200
C1837       C  0.76654236  0.65536369  0.61366525     1.06100
C1838       C  0.85403816  0.66739561  0.50941071     1.09100
C1839       C  0.68290373  0.65293784  0.50971669     1.06900
H1840       H  0.81294008  0.70239711  0.56529670     0.32500
O1841       O  0.79738779  0.71591445  0.54647477    -1.29500
H1842       H  0.71467583  0.69357086  0.43503981     0.32100
O1843       O  0.72880586  0.70959451  0.45205114    -1.31100
O1844       O  0.75970064  0.80678465  0.62877390    -0.86900
O1845       O  0.75586415  0.80755855  0.36868086    -0.88400
O1846       O  0.85744417  0.75671422  0.57079632    -0.87000
O1847       O  0.66402017  0.74041853  0.57029901    -0.87000
O1848       O  0.66280230  0.74058502  0.42870608    -0.86700
O1849       O  0.85718590  0.75495851  0.42657203    -0.86500
O1850       O  0.80587474  0.85165287  0.50309123    -0.86900
O1851       O  0.69745838  0.84017520  0.49904888    -0.86400
O1852       O  0.85055224  0.81261358  0.50693447    -0.87400
O1853       O  0.65966871  0.79422107  0.50013523    -0.86600
O1854       O  0.81916317  0.75118868  0.62915116    -0.87000
O1855       O  0.81781258  0.74945645  0.36861629    -0.86700
O1856       O  0.69987269  0.74385853  0.36924442    -0.86400
O1857       O  0.70206655  0.74257207  0.62941427    -0.86800
O1858       O  0.75573480  0.84597497  0.56995012    -0.87100
O1859       O  0.75279447  0.84670970  0.42655905    -0.88400
Zr1860     Zr  0.76071709  0.74706329  0.59484662     2.83100
Zr1861     Zr  0.75939218  0.74720588  0.40303132     2.83500
Zr1862     Zr  0.82809846  0.75342187  0.49869167     2.84100
Zr1863     Zr  0.69361035  0.74184069  0.49934112     2.83400
Zr1864     Zr  0.75482719  0.81617423  0.49812581     2.84200
O1865       O  0.72323523  0.77944802  0.45098410    -1.09000
O1866       O  0.79139876  0.78427088  0.54545680    -1.08500
C1867       C  0.75788385  0.83862624  0.61252412     1.06200
C1868       C  0.75387586  0.83938153  0.38424893     1.08800
C1869       C  0.85001865  0.75498711  0.61315575     1.06300
C1870       C  0.67098122  0.74019180  0.61273582     1.06700
C1871       C  0.66903980  0.74116568  0.38621392     1.06300
C1872       C  0.84902206  0.75295003  0.38436573     1.05800
C1873       C  0.83772611  0.84375729  0.50858343     1.06300
C1874       C  0.66710293  0.82694396  0.50038234     1.05800
H1875       H  0.80482364  0.80122811  0.43279330     0.32500
O1876       O  0.79138480  0.78509740  0.45065012    -1.30100
H1877       H  0.70836333  0.79323339  0.56455946     0.32500
O1878       O  0.72385675  0.77956257  0.54659738    -1.31500
N1879       N  0.95899707  0.50176625  0.57037566    -0.37000
N1880       N  0.51680811  0.55089876  0.54798924    -0.57600
N1881       N  0.56142164  0.49072510  0.54445851    -0.37000
N1882       N  0.50422060  0.94368792  0.54725356    -0.57600
C1883       C  0.94283580  0.53219884  0.57850987     0.26600
C1884       C  0.93529834  0.97847204  0.57275697     0.26600
C1885       C  0.58475553  0.51607302  0.55210657     0.26600
C1886       C  0.57849238  0.95999648  0.55051293     0.26600
C1887       C  0.98922177  0.57270724  0.55516515     0.35200
C1888       C  0.54654176  0.56745402  0.53911786     0.35200
C1889       C  0.97231163  0.92912018  0.55085953     0.35200
C1890       C  0.52872718  0.92159981  0.53311760     0.35200
C1891       C  0.91016569  0.52557466  0.59496707    -0.22300
C1892       C  0.90484661  0.99267644  0.58817458    -0.22300
C1893       C  0.61624899  0.50106192  0.56319654    -0.22300
C1894       C  0.61275640  0.96509890  0.56204908    -0.22300
C1895       C  0.00135377  0.60358290  0.53611814    -0.23400
C1896       C  0.54023906  0.60175710  0.52527835    -0.23400
C1897       C  0.97818437  0.89746924  0.52975191    -0.23400
C1898       C  0.51410131  0.89139221  0.51593122    -0.23400
C1899       C  0.95440635  0.56496484  0.56282011    -0.18700
C1900       C  0.93974917  0.94360373  0.55928036    -0.18700
C1901       C  0.56414423  0.92773392  0.53773270    -0.18700
C1902       C  0.57926534  0.55187321  0.54292661    -0.18700
H1903       H  0.89050695  0.54461601  0.60270499     0.14200
H1904       H  0.88110859  0.97896898  0.59519571     0.14200
H1905       H  0.64041007  0.51423601  0.56935363     0.14200
H1906       H  0.63256565  0.94535596  0.56604644     0.14200
H1907       H  0.98660436  0.62593635  0.52423787     0.12500
H1908       H  0.55872402  0.62184027  0.51660463     0.12500
H1909       H  0.95930431  0.87965885  0.51593123     0.12500
H1910       H  0.52719170  0.86879337  0.50253650     0.12500
H1911       H  0.98077536  0.49911174  0.55067397     0.25700
H1912       H  0.53786012  0.49423979  0.52845059     0.25700
O1913       O  0.98743428  0.94110602  0.86573813    -0.86900
O1914       O  0.98363847  0.93933378  0.12513628    -0.87100
O1915       O  0.54057382  0.90002990  0.98879762    -0.88700
O1916       O  0.92344171  0.90562678  0.98566846    -0.87500
O1917       O  0.88412566  0.95031446  0.98815329    -0.87100
O1918       O  0.58336666  0.94106255  0.99091903    -0.88500
O1919       O  0.97745170  0.90015190  0.06758892    -0.86900
O1920       O  0.98671399  0.90021547  0.92354141    -0.86500
Zr1921     Zr  0.98059288  0.93036490  0.99495471     2.84300
O1922       O  0.94886569  0.96660438  0.04227632    -1.08500
O1923       O  0.52000410  0.96466467  0.94882033    -1.09200
C1924       C  0.98883867  0.90907892  0.88145790     1.06200
C1925       C  0.98005875  0.90756999  0.10987268     1.06100
C1926       C  0.57231729  0.90956571  0.98710826     1.09100
C1927       C  0.89262955  0.91803313  0.98303644     1.06900
H1928       H  0.53657447  0.94768729  0.06088017     0.32500
O1929       O  0.52187159  0.96316293  0.04331874    -1.29500
H1930       H  0.93403081  0.95412607  0.92800824     0.32100
O1931       O  0.94895476  0.96769714  0.94710975    -1.31100
O1932       O  0.98692374  0.55785145  0.12897781    -0.86900
O1933       O  0.99011162  0.56079276  0.86998041    -0.88400
O1934       O  0.58657012  0.99586093  0.06715933    -0.87000
O1935       O  0.88779498  0.00410533  0.06710249    -0.87000
O1936       O  0.88943254  0.50302616  0.92585408    -0.86700
O1937       O  0.58407514  0.49471805  0.92223421    -0.86500
O1938       O  0.54466642  0.59569071  0.98854853    -0.86900
O1939       O  0.93738909  0.60015872  0.99096732    -0.86400
O1940       O  0.58525555  0.55213706  0.98991034    -0.87400
O1941       O  0.89364569  0.56006784  0.99189822    -0.86600
O1942       O  0.54754230  0.99793827  0.12506695    -0.87000
O1943       O  0.54434255  0.49806974  0.86449676    -0.86700
O1944       O  0.92901165  0.50009877  0.86860286    -0.86400
O1945       O  0.92760237  0.00084375  0.12493704    -0.86800
O1946       O  0.98896317  0.59773548  0.07066560    -0.87100
O1947       O  0.99379754  0.59949119  0.92826067    -0.88400
Zr1948     Zr  0.98580256  0.99926395  0.09002772     2.83100
Zr1949     Zr  0.98777220  0.50017527  0.90390083     2.83500
Zr1950     Zr  0.55591531  0.99727402  0.99562129     2.84100
Zr1951     Zr  0.91699576  0.00386622  0.99462661     2.83400
Zr1952     Zr  0.99048353  0.56775705  0.99929757     2.84200
O1953       O  0.95488515  0.53593255  0.95130412    -1.09000
O1954       O  0.52242382  0.53244837  0.04189799    -1.08500
C1955       C  0.98760832  0.58992375  0.11309473     1.06200
C1956       C  0.99250594  0.59253724  0.88575577     1.08800
C1957       C  0.57862952  0.99686357  0.10932091     1.06300
C1958       C  0.89622099  0.00296467  0.10939118     1.06700
C1959       C  0.89766139  0.50146912  0.88385466     1.06300
C1960       C  0.57573903  0.49555015  0.87997039     1.05800
C1961       C  0.57580272  0.58431756  0.98639097     1.06300
C1962       C  0.90554490  0.59140038  0.98801511     1.05800
H1963       H  0.53601343  0.54791919  0.92802747     0.32500
O1964       O  0.52149410  0.53347133  0.94676334    -1.30100
H1965       H  0.93979510  0.55053285  0.06347431     0.32500
O1966       O  0.95415610  0.53508867  0.04616358    -1.31500
N1967       N  0.68515264  0.74676238  0.93177759    -0.37000
N1968       N  0.73403823  0.80213364  0.92003104    -0.57600
N1969       N  0.79003187  0.75298798  0.92304815    -0.37000
N1970       N  0.74033324  0.69730053  0.93074117    -0.57600
C1971       C  0.66677504  0.77464901  0.94527681     0.26600
C1972       C  0.67025962  0.71815723  0.95019464     0.26600
C1973       C  0.80577989  0.78310715  0.93472965     0.26600
C1974       C  0.80902514  0.72655200  0.94088837     0.26600
C1975       C  0.70491578  0.82087641  0.91547396     0.35200
C1976       C  0.76005510  0.82417342  0.91068710     0.35200
C1977       C  0.71383898  0.67481226  0.92855316     0.35200
C1978       C  0.76892939  0.67828431  0.92471908     0.35200
C1979       C  0.63967471  0.76363808  0.97209766    -0.22300
C1980       C  0.64180932  0.72782958  0.97504897    -0.22300
C1981       C  0.83541608  0.77568946  0.95941741    -0.22300
C1982       C  0.83745949  0.73991193  0.96329993    -0.22300
C1983       C  0.71229515  0.85473530  0.90142813    -0.23400
C1984       C  0.74742895  0.85684648  0.89815441    -0.23400
C1985       C  0.72540375  0.64132499  0.91936150    -0.23400
C1986       C  0.76060184  0.64355084  0.91674569    -0.23400
C1987       C  0.67316795  0.80961223  0.93251526    -0.18700
C1988       C  0.68076514  0.68345199  0.94308938    -0.18700
C1989       C  0.80162217  0.69065299  0.93661684    -0.18700
C1990       C  0.79419064  0.81709755  0.92333472    -0.18700
H1991       H  0.62027899  0.77969158  0.98775207     0.14200
H1992       H  0.62443774  0.71085682  0.99343389     0.14200
H1993       H  0.85345589  0.79411768  0.97378471     0.14200
H1994       H  0.85736222  0.72542383  0.98115206     0.14200
H1995       H  0.69442958  0.87622765  0.89767528     0.12500
H1996       H  0.76206993  0.88035002  0.89105868     0.12500
H1997       H  0.71035340  0.61752159  0.91799039     0.12500
H1998       H  0.77815224  0.62175537  0.91320572     0.12500
H1999       H  0.70449351  0.74690984  0.90765331     0.25700
H2000       H  0.76900402  0.75052847  0.90128543     0.25700
C2001       C  0.54011758  0.74709247  0.27762534     0.86100
C2002       C  0.53567279  0.71599460  0.24608580    -0.54200
C2003       C  0.00384081  0.71740479  0.21962190     0.09000
C2004       C  0.98092214  0.74959600  0.23146947     0.19900
C2005       C  0.53577227  0.78003889  0.24798957    -0.54900
C2006       C  0.00324590  0.78340394  0.22553022     0.09100
C2007       C  0.00744131  0.74564338  0.30602024    -0.54400
C2008       C  0.97659196  0.74662130  0.28297005     0.09700
H2009       H  0.55441813  0.69493481  0.24459989     0.14200
H2010       H  0.95593534  0.75069301  0.21329926    -0.00100
H2011       H  0.55410065  0.80147406  0.24818359     0.14500
H2012       H  0.00850543  0.74530220  0.34265320     0.14300
C2013       C  0.70623136  0.00052488  0.21821609     0.86100
C2014       C  0.70995559  0.96880694  0.24992455    -0.54200
C2015       C  0.74010865  0.96681431  0.27335002     0.09000
C2016       C  0.76407585  0.99874355  0.26489261     0.19900
C2017       C  0.71108595  0.53170705  0.24881876    -0.54900
C2018       C  0.74113797  0.53111055  0.27289493     0.09100
C2019       C  0.73908376  0.00081169  0.18913540    -0.54400
C2020       C  0.76939073  0.99929440  0.21316033     0.09700
H2021       H  0.69010451  0.94900447  0.25351792     0.14200
H2022       H  0.78837149  0.99755015  0.28450875    -0.00100
H2023       H  0.69390443  0.55366279  0.25250116     0.14500
H2024       H  0.73847743  0.00294691  0.15254985     0.14300
C2025       C  0.54316150  0.74788958  0.71970624     0.86100
C2026       C  0.53953429  0.78180968  0.74684525    -0.54200
C2027       C  0.00959302  0.78467167  0.77032041     0.09000
C2028       C  0.98586514  0.75225622  0.76316082     0.19900
C2029       C  0.53644977  0.71818921  0.75328752    -0.54900
C2030       C  0.00817837  0.71911108  0.77336016     0.09100
C2031       C  0.01040945  0.74947766  0.68801908    -0.54400
C2032       C  0.98024369  0.75193450  0.71136585     0.09700
H2033       H  0.55941997  0.80168933  0.74762416     0.14200
H2034       H  0.96186843  0.75257125  0.78294032    -0.00100
H2035       H  0.55385606  0.69605506  0.75707849     0.14500
H2036       H  0.01071708  0.74784227  0.65166302     0.14300
C2037       C  0.70328777  0.99811439  0.77347267     0.86100
C2038       C  0.71142685  0.52927060  0.74641611    -0.54200
C2039       C  0.74254825  0.53027116  0.72525588     0.09000
C2040       C  0.76175305  0.99741584  0.72955908     0.19900
C2041       C  0.70854842  0.96562979  0.74436969    -0.54900
C2042       C  0.73877382  0.96463613  0.72157234     0.09100
C2043       C  0.73595584  0.00030393  0.80401107    -0.54400
C2044       C  0.76645838  0.99917241  0.78101957     0.09700
H2045       H  0.69435339  0.55162405  0.74468034     0.14200
H2046       H  0.78650966  0.99690458  0.71118403    -0.00100
H2047       H  0.68984051  0.94456286  0.74257845     0.14500
H2048       H  0.73498013  0.00254046  0.84050134     0.14300
C2049       C  0.63324900  0.97048532  0.13635086    -0.20700
C2050       C  0.60836954  0.99671932  0.14110595    -0.07300
C2051       C  0.61563381  0.52652880  0.16694700     0.13600
C2052       C  0.64657045  0.52648731  0.19192852    -0.20800
C2053       C  0.67196741  0.99884042  0.19076410    -0.07300
C2054       C  0.66460175  0.97079483  0.16051447     0.13600
C2055       C  0.68906472  0.94059999  0.15278655    -0.24100
H2056       H  0.62810013  0.94957477  0.11287217     0.14900
H2057       H  0.65089206  0.54900822  0.21257840     0.14900
C2058       C  0.59326501  0.55870798  0.16928612    -0.24100
H2059       H  0.67849755  0.92174920  0.12803701     0.05100
H2060       H  0.69368407  0.92539999  0.18425353     0.08300
H2061       H  0.71374928  0.94991263  0.13890142     0.08300
H2062       H  0.57024627  0.55741977  0.14716651     0.08300
H2063       H  0.60831525  0.58203509  0.15858848     0.08300
H2064       H  0.58478020  0.56241845  0.20462067     0.05100
C2065       C  0.85963362  0.97572308  0.17013886    -0.20700
C2066       C  0.86666684  0.00440561  0.14145273    -0.07300
C2067       C  0.84199781  0.52914745  0.13830337     0.13600
C2068       C  0.81077401  0.52719128  0.16174159    -0.20800
C2069       C  0.80385335  0.00075528  0.19061730    -0.07300
C2070       C  0.82850559  0.97350181  0.19455426     0.13600
C2071       C  0.82111391  0.94099410  0.22201334    -0.24100
H2072       H  0.87776421  0.95417882  0.17170767     0.14900
H2073       H  0.79210582  0.54805228  0.15756055     0.14900
C2074       C  0.84890250  0.56096311  0.10925749    -0.24100
H2075       H  0.84218232  0.92148880  0.21959216     0.05100
H2076       H  0.79710495  0.92859859  0.20951302     0.08300
H2077       H  0.81823453  0.94768408  0.25811318     0.08300
H2078       H  0.85022416  0.55333860  0.07331383     0.08300
H2079       H  0.87354426  0.57323197  0.11966871     0.08300
H2080       H  0.82827297  0.58091977  0.11217666     0.05100
C2081       C  0.52551060  0.82242596  0.16179347    -0.20700
C2082       C  0.99219483  0.81662845  0.20053152    -0.07300
C2083       C  0.00073305  0.85111624  0.21496633     0.13600
C2084       C  0.99593486  0.88010970  0.18535577    -0.20800
C2085       C  0.98067767  0.87659418  0.14239889    -0.07300
C2086       C  0.52359839  0.85369070  0.13632599     0.13600
C2087       C  0.55273396  0.86279993  0.10498704    -0.24100
H2088       H  0.54778690  0.80561252  0.15839530     0.14900
H2089       H  0.00437826  0.90576110  0.19614197     0.14900
C2090       C  0.01316975  0.85900447  0.26212762    -0.24100
H2091       H  0.57400970  0.84345406  0.10752556     0.05100
H2092       H  0.56326344  0.88892757  0.11364324     0.08300
H2093       H  0.54355971  0.86313779  0.06944845     0.08300
H2094       H  0.04032794  0.86786946  0.26114472     0.08300
H2095       H  0.01069447  0.83639642  0.28562101     0.08300
H2096       H  0.99723340  0.88024536  0.27646685     0.05100
C2097       C  0.98115888  0.65480199  0.12369991    -0.20700
C2098       C  0.98689132  0.62144529  0.14388156    -0.07300
C2099       C  0.49708732  0.61924123  0.18783292     0.13600
C2100       C  0.49978467  0.65039403  0.21327515    -0.20800
C2101       C  0.99305079  0.68519314  0.19401612    -0.07300
C2102       C  0.98381344  0.68621148  0.14795559     0.13600
C2103       C  0.97737139  0.72031161  0.12367376    -0.24100
H2104       H  0.97484571  0.65667513  0.08806161     0.14900
H2105       H  0.50467033  0.64847921  0.24931724     0.14900
C2106       C  0.50078988  0.58461476  0.21223014    -0.24100
H2107       H  0.97297800  0.71667222  0.08691500     0.05100
H2108       H  0.99977219  0.73800538  0.12789110     0.08300
H2109       H  0.95379390  0.73224642  0.13748485     0.08300
H2110       H  0.52258138  0.56969596  0.19823352     0.08300
H2111       H  0.47675737  0.56923946  0.20857715     0.08300
H2112       H  0.50584079  0.58800243  0.24890389     0.05100
C2113       C  0.59120028  0.86237736  0.93784683    -0.20700
C2114       C  0.59781821  0.88292344  0.97592647    -0.07300
C2115       C  0.62969663  0.88007790  0.99886659     0.13600
C2116       C  0.65411717  0.85637315  0.98319658    -0.20800
C2117       C  0.64751761  0.83614424  0.94492205    -0.07300
C2118       C  0.61591790  0.83920833  0.92171144     0.13600
C2119       C  0.60861220  0.81858567  0.87959649    -0.24100
H2120       H  0.56699258  0.86533296  0.91978027     0.14900
H2121       H  0.67841114  0.85327009  0.00100902     0.14900
C2122       C  0.63778161  0.90108548  0.04037942    -0.24100
H2123       H  0.58292748  0.82494426  0.86501293     0.05100
H2124       H  0.60923241  0.79010018  0.88735766     0.08300
H2125       H  0.62828103  0.82473628  0.85372959     0.08300
H2126       H  0.61794617  0.89616139  0.06639041     0.08300
H2127       H  0.63862660  0.92942461  0.03184869     0.08300
H2128       H  0.66317096  0.89385812  0.05514117     0.05100
C2129       C  0.87170779  0.87615745  0.92742332    -0.20700
C2130       C  0.86577007  0.89394119  0.96784290    -0.07300
C2131       C  0.83439172  0.88944755  0.99068318     0.13600
C2132       C  0.81041373  0.86553424  0.97364879    -0.20800
C2133       C  0.81704768  0.84674261  0.93413163    -0.07300
C2134       C  0.84753801  0.85288083  0.90993201     0.13600
C2135       C  0.85544814  0.83507344  0.86602704    -0.24100
H2136       H  0.89539721  0.88064373  0.90914878     0.14900
H2137       H  0.78695449  0.86038732  0.99209457     0.14900
C2138       C  0.82682383  0.90845790  0.03381462    -0.24100
H2139       H  0.87913048  0.81906095  0.87004035     0.05100
H2140       H  0.85972347  0.85520352  0.83928585     0.08300
H2141       H  0.83434866  0.81779394  0.85440039     0.08300
H2142       H  0.82610824  0.93713202  0.02736150     0.08300
H2143       H  0.84700276  0.90237764  0.05945209     0.08300
H2144       H  0.80157585  0.90065127  0.04799441     0.05100
C2145       C  0.85723674  0.66175690  0.92389103    -0.20700
C2146       C  0.82812276  0.66517171  0.95080841    -0.07300
C2147       C  0.82567888  0.64638274  0.99205141     0.13600
C2148       C  0.85179999  0.62284332  0.00400182    -0.20800
C2149       C  0.88070945  0.61898016  0.97675773    -0.07300
C2150       C  0.88391144  0.63922401  0.93676844     0.13600
C2151       C  0.91510548  0.63683593  0.90731584    -0.24100
H2152       H  0.85914883  0.67709870  0.89296796     0.14900
H2153       H  0.84987211  0.60769221  0.03490181     0.14900
C2154       C  0.79624054  0.65185540  0.02406893    -0.24100
H2155       H  0.91270719  0.65350214  0.87645314     0.05100
H2156       H  0.91912485  0.60938727  0.89667689     0.08300
H2157       H  0.93782974  0.64594983  0.92663750     0.08300
H2158       H  0.77165652  0.64372523  0.00827268     0.08300
H2159       H  0.79468792  0.67992702  0.03323899     0.08300
H2160       H  0.79956565  0.63628107  0.05572141     0.05100
C2161       C  0.63068648  0.61319736  0.00513462    -0.20700
C2162       C  0.60263091  0.60965848  0.97561194    -0.07300
C2163       C  0.60189858  0.62809032  0.93399998     0.13600
C2164       C  0.62875151  0.65087285  0.92366083    -0.20800
C2165       C  0.65615268  0.65545150  0.95380568    -0.07300
C2166       C  0.65747876  0.63632983  0.99496784     0.13600
C2167       C  0.68612878  0.64027331  0.02913043    -0.24100
H2168       H  0.63138180  0.59828936  0.03653778     0.14900
H2169       H  0.62814622  0.66578281  0.89226323     0.14900
C2170       C  0.57334205  0.62317462  0.89993287    -0.24100
H2171       H  0.69928809  0.61469498  0.03416606     0.05100
H2172       H  0.67530877  0.64871182  0.06185113     0.08300
H2173       H  0.70565208  0.65983002  0.01886052     0.08300
H2174       H  0.54863258  0.63201799  0.91429561     0.04100
H2175       H  0.57144985  0.59513405  0.89081238     0.08300
H2176       H  0.57779438  0.63851773  0.86841626     0.05100
C2177       C  0.85590211  0.46883731  0.83519961    -0.20700
C2178       C  0.86767831  0.50101810  0.85208752    -0.07300
C2179       C  0.84649143  0.53096113  0.84647419     0.13600
C2180       C  0.81276887  0.03391657  0.81924794    -0.20800
C2181       C  0.80102309  0.00150568  0.80324676    -0.07300
C2182       C  0.82360148  0.46602906  0.81321231     0.13600
C2183       C  0.81166796  0.43095230  0.79651640    -0.24100
H2184       H  0.87139210  0.44556007  0.84084175     0.14900
H2185       H  0.79663745  0.05686262  0.81467051     0.14900
C2186       C  0.85598872  0.07194641  0.85939298    -0.24100
H2187       H  0.83075756  0.41004864  0.80409223     0.05100
H2188       H  0.80778355  0.43220769  0.75937667     0.08300
H2189       H  0.78617787  0.92934513  0.80802949     0.08300
H2190       H  0.88238836  0.57358994  0.84832523     0.08300
H2191       H  0.85909631  0.07066326  0.89666238     0.08300
H2192       H  0.83698580  0.09283789  0.85117641     0.05100
C2193       C  0.64200603  0.51615177  0.78793641    -0.20700
C2194       C  0.66867323  0.99636096  0.79949282    -0.07300
C2195       C  0.66315399  0.97170866  0.83523932     0.13600
C2196       C  0.63242351  0.97255231  0.85994777    -0.20800
C2197       C  0.60557059  0.49310371  0.84823947    -0.07300
C2198       C  0.61024410  0.51581144  0.81087083     0.13600
C2199       C  0.58212573  0.54035758  0.79559066    -0.24100
H2200       H  0.64419455  0.53356519  0.75922796     0.14900
H2201       H  0.62954494  0.95465685  0.88840714     0.14900
C2202       C  0.68811849  0.94299314  0.84832362    -0.24100
H2203       H  0.59004980  0.55688723  0.76638146     0.05100
H2204       H  0.57055103  0.05732123  0.81994288     0.08300
H2205       H  0.55928958  0.52498405  0.78503018     0.08300
H2206       H  0.71125467  0.94142470  0.82721552     0.08300
H2207       H  0.67269084  0.41303351  0.84238309     0.08300
H2208       H  0.69648544  0.94629325  0.88396858     0.05100
C2209       C  0.47774500  0.65634295  0.86907268    -0.20700
C2210       C  0.99387616  0.62453264  0.85460691    -0.07300
C2211       C  0.99214411  0.62351802  0.80664224     0.13600
C2212       C  0.99470752  0.65504721  0.78114357    -0.20800
C2213       C  0.99844252  0.68795264  0.80176291    -0.07300
C2214       C  0.48233363  0.68808145  0.84530894     0.13600
C2215       C  0.47697589  0.72180997  0.86975366    -0.24100
H2216       H  0.47029682  0.65765824  0.90418612     0.14900
H2217       H  0.99475831  0.65398524  0.74456508     0.14900
C2218       C  0.98822302  0.58960802  0.78166303    -0.24100
H2219       H  0.47118166  0.71743714  0.90605678     0.05100
H2220       H  0.45460052  0.73558431  0.85452064     0.08300
H2221       H  0.50054193  0.73809864  0.86769966     0.08300
H2222       H  0.96394316  0.57650867  0.79167685     0.08300
H2223       H  0.01040108  0.57223203  0.78927950     0.08300
H2224       H  0.98728433  0.59384860  0.74449176     0.05100
C2225       C  0.96748754  0.86663580  0.82326227    -0.20700
C2226       C  0.99462950  0.87939183  0.84989408    -0.07300
C2227       C  0.47561608  0.84460303  0.86238196     0.13600
C2228       C  0.48177589  0.81581955  0.83424260    -0.20800
C2229       C  0.00228600  0.81650177  0.79889955    -0.07300
C2230       C  0.97094835  0.83583026  0.79735353     0.13600
C2231       C  0.94145085  0.82553290  0.76714663    -0.24100
H2232       H  0.94326646  0.88067889  0.82314501     0.14900
H2233       H  0.47315000  0.79040202  0.84498783     0.14900
C2234       C  0.45506912  0.83799112  0.90474213    -0.24100
H2235       H  0.92040527  0.84519324  0.76762218     0.05100
H2236       H  0.93028901  0.80031846  0.77842041     0.08300
H2237       H  0.95038381  0.82368411  0.73188214     0.08300
H2238       H  0.05039672  0.87442343  0.91350760     0.08300
H2239       H  0.47168790  0.84033599  0.93516772     0.08300
H2240       H  0.44402955  0.81116444  0.90565694     0.05100
C2241       C  0.90769981  0.77914251  0.63002288    -0.20700
C2242       C  0.88049236  0.75751272  0.64411557    -0.07300
C2243       C  0.88549878  0.73598970  0.68285908     0.13600
C2244       C  0.91804846  0.73521863  0.70448614    -0.20800
C2245       C  0.94580595  0.75538044  0.68850387    -0.07300
C2246       C  0.93994120  0.77874278  0.65153106     0.13600
C2247       C  0.96685659  0.80410449  0.63440605    -0.24100
H2248       H  0.90409823  0.79584245  0.60056947     0.14900
H2249       H  0.92215910  0.71785865  0.73323028     0.14900
C2250       C  0.85725798  0.71273851  0.70044775    -0.24100
H2251       H  0.95564563  0.82360647  0.61043717     0.05100
H2252       H  0.98694344  0.79035094  0.61526029     0.08300
H2253       H  0.97863308  0.81871821  0.66274398     0.08300
H2254       H  0.84869585  0.69435774  0.67387398     0.08300
H2255       H  0.83516760  0.72902998  0.71101665     0.08300
H2256       H  0.86588649  0.69696831  0.73018526     0.05100
C2257       C  0.57844258  0.72603504  0.65345190    -0.20700
C2258       C  0.57815455  0.74300534  0.69534926    -0.07300
C2259       C  0.61094803  0.75188997  0.71424563     0.13600
C2260       C  0.64079299  0.75078132  0.68707473    -0.20800
C2261       C  0.63989882  0.73769491  0.64287312    -0.07300
C2262       C  0.60822833  0.72310386  0.62725937     0.13600
C2263       C  0.60496638  0.70341096  0.58332732    -0.24100
H2264       H  0.55517193  0.71412103  0.64083373     0.14900
H2265       H  0.66502042  0.75993539  0.70086755     0.14900
C2266       C  0.61630137  0.76095881  0.76325782    -0.24100
H2267       H  0.57979610  0.68992100  0.58008136     0.05100
H2268       H  0.62511466  0.68296764  0.58156514     0.08300
H2269       H  0.60680034  0.72164783  0.55402093     0.08300
H2270       H  0.63703699  0.74420247  0.77783195     0.08300
H2271       H  0.59342874  0.75608251  0.78431197     0.08300
H2272       H  0.62414440  0.78880327  0.76611471     0.05100
C2273       C  0.76897465  0.55999667  0.65819522    -0.20700
C2274       C  0.75479323  0.56304614  0.70110292    -0.07300
C2275       C  0.75028106  0.59744333  0.71829204     0.13600
C2276       C  0.75522318  0.62700450  0.68981765    -0.20800
C2277       C  0.76631865  0.62368625  0.64494074    -0.07300
C2278       C  0.77498665  0.58925591  0.62999256     0.13600
C2279       C  0.79041556  0.58214091  0.58426433    -0.24100
H2280       H  0.77427031  0.53432885  0.64566637     0.14900
H2281       H  0.74993865  0.65284278  0.70287732     0.14900
C2282       C  0.74160669  0.60422373  0.76696231    -0.24100
H2283       H  0.79860486  0.55440695  0.58097146     0.05100
H2284       H  0.81358106  0.59865372  0.57917550     0.08300
H2285       H  0.77119675  0.58709445  0.55703988     0.08300
H2286       H  0.74207023  0.58019323  0.78824311     0.08300
H2287       H  0.71584804  0.61659531  0.76897452     0.08300
H2288       H  0.76096733  0.62228141  0.78164041     0.05100
C2289       C  0.75614485  0.90386997  0.62232340    -0.20700
C2290       C  0.75728618  0.87028274  0.64316421    -0.07300
C2291       C  0.75592084  0.86888769  0.69112437     0.13600
C2292       C  0.75096427  0.90017064  0.71561809    -0.20800
C2293       C  0.74803347  0.93319987  0.69406234    -0.07300
C2294       C  0.75066559  0.93475859  0.64662107     0.13600
C2295       C  0.74522171  0.96805283  0.61976337    -0.24100
H2296       H  0.75781814  0.90636524  0.58591852     0.14900
H2297       H  0.74864107  0.89877860  0.75204210     0.14900
C2298       C  0.75943290  0.83489536  0.71705281    -0.24100
H2299       H  0.72481396  0.96390599  0.59392962     0.05100
H2300       H  0.76940681  0.97541104  0.60243095     0.08300
H2301       H  0.73666331  0.99007764  0.64074037     0.08300
H2302       H  0.78444468  0.82242970  0.70919304     0.08300
H2303       H  0.73801821  0.81701767  0.70812700     0.08300
H2304       H  0.75866695  0.83896779  0.75413413     0.05100
C2305       C  0.88413099  0.61184332  0.49718688    -0.20700
C2306       C  0.88148759  0.64282896  0.52164595    -0.07300
C2307       C  0.90231370  0.64789288  0.56043406     0.13600
C2308       C  0.92538347  0.62163262  0.57372186    -0.20800
C2309       C  0.92846063  0.59100122  0.54865246    -0.07300
C2310       C  0.90795067  0.58610194  0.50955611     0.13600
C2311       C  0.91084813  0.55454344  0.47958674    -0.24100
H2312       H  0.86776473  0.60790865  0.46784383     0.14900
H2313       H  0.94133730  0.62500163  0.60355880     0.14900
C2314       C  0.89937426  0.68010457  0.58900612    -0.24100
H2315       H  0.88630495  0.53973046  0.48013193     0.05100
H2316       H  0.93189599  0.53649739  0.48960545     0.08300
H2317       H  0.91597964  0.56331725  0.44439681     0.08300
H2318       H  0.87248603  0.68294782  0.60051139     0.08300
H2319       H  0.90703551  0.70360036  0.56915303     0.08300
H2320       H  0.91626370  0.67866600  0.61940516     0.05100
C2321       C  0.62925726  0.58575037  0.56909206    -0.20700
C2322       C  0.60914732  0.57394458  0.53295621    -0.07300
C2323       C  0.61525971  0.58623990  0.48850017     0.13600
C2324       C  0.63950705  0.61248723  0.48192099    -0.20800
C2325       C  0.65922369  0.62452641  0.51803582    -0.07300
C2326       C  0.65505277  0.61047217  0.56185233     0.13600
C2327       C  0.67730066  0.62197502  0.60083584    -0.24100
H2328       H  0.62432676  0.57598960  0.60295664     0.14900
H2329       H  0.64289619  0.62374123  0.44851475     0.14900
C2330       C  0.59585242  0.57319896  0.44771672    -0.24100
H2331       H  0.70438809  0.61514661  0.59376571     0.05100
H2332       H  0.66996389  0.60879200  0.63297551     0.08300
H2333       H  0.67519682  0.65069546  0.60547098     0.08300
H2334       H  0.57789766  0.55155371  0.45586930     0.08300
H2335       H  0.61437059  0.56327453  0.42253902     0.08300
H2336       H  0.58091742  0.59507976  0.43218793     0.05100
C2337       C  0.61855279  0.84627945  0.54479742    -0.20700
C2338       C  0.63871678  0.85095426  0.50622915    -0.07300
C2339       C  0.63292479  0.87939426  0.47650160     0.13600
C2340       C  0.60701599  0.90320012  0.48673427    -0.20800
C2341       C  0.58800266  0.89949868  0.52655993    -0.07300
C2342       C  0.59357860  0.87072831  0.55597484     0.13600
C2343       C  0.57487045  0.86581179  0.60004526    -0.24100
H2344       H  0.62356308  0.82436079  0.56758236     0.14900
H2345       H  0.60229367  0.92550785  0.46454360     0.14900
C2346       C  0.65384198  0.88455731  0.43426118    -0.24100
H2347       H  0.56064557  0.84061139  0.59964634     0.05100
H2348       H  0.55626435  0.88701815  0.60692523     0.08300
H2349       H  0.59377149  0.86512540  0.62835002     0.08300
H2350       H  0.65183649  0.86095826  0.41281555     0.08300
H2351       H  0.68120982  0.88915341  0.44317570     0.08300
H2352       H  0.64474319  0.90748828  0.41406980     0.05100
C2353       C  0.87742943  0.86835651  0.56413960    -0.20700
C2354       C  0.86101009  0.87197194  0.52204359    -0.07300
C2355       C  0.86648048  0.90227826  0.49537685     0.13600
C2356       C  0.89100439  0.92677342  0.50974540    -0.20800
C2357       C  0.90923437  0.92167015  0.55041122    -0.07300
C2358       C  0.90130828  0.89308694  0.57890446     0.13600
C2359       C  0.91810179  0.88876672  0.62467916    -0.24100
H2360       H  0.87137943  0.84606541  0.58557186     0.14900
H2361       H  0.89705153  0.94917631  0.48843877     0.14900
C2362       C  0.84758183  0.90809104  0.45131612    -0.24100
H2363       H  0.90857481  0.86510845  0.64281707     0.05100
H2364       H  0.91235831  0.91198471  0.64556529     0.08300
H2365       H  0.94635117  0.88628854  0.62119227     0.08300
H2366       H  0.81954862  0.90993482  0.45750814     0.08300
H2367       H  0.85265002  0.88599224  0.42823054     0.08300
H2368       H  0.85575673  0.93274512  0.43427240     0.05100
C2369       C  0.63763606  0.75287804  0.31216883    -0.20700
C2370       C  0.63738019  0.73919430  0.35638128    -0.07300
C2371       C  0.60585350  0.72457203  0.37230373     0.13600
C2372       C  0.57555994  0.72808032  0.34636440    -0.20800
C2373       C  0.57493366  0.74453610  0.30367520    -0.07300
C2374       C  0.60756798  0.75381882  0.28483271     0.13600
C2375       C  0.61268550  0.76320795  0.23569632    -0.24100
H2376       H  0.66166524  0.76230624  0.29831201     0.14900
H2377       H  0.55223325  0.71664783  0.35947643     0.14900
C2378       C  0.60351010  0.70371003  0.41593940    -0.24100
H2379       H  0.63431574  0.74760929  0.22216052     0.05100
H2380       H  0.61913189  0.79143576  0.23231187     0.08300
H2381       H  0.59032259  0.75701775  0.21399917     0.08300
H2382       H  0.60590763  0.72115044  0.44550391     0.08300
H2383       H  0.62382540  0.68327935  0.41704375     0.08300
H2384       H  0.57842225  0.69008399  0.41923359     0.05100
C2385       C  0.93559874  0.77750113  0.33338877    -0.20700
C2386       C  0.94231980  0.74871763  0.30578361    -0.07300
C2387       C  0.91635930  0.72300356  0.30034527     0.13600
C2388       C  0.88493854  0.72620064  0.32371499    -0.20800
C2389       C  0.87886538  0.75429664  0.35286995    -0.07300
C2390       C  0.90440671  0.78066036  0.35686803     0.13600
C2391       C  0.89880391  0.81252491  0.38564527    -0.24100
H2392       H  0.95510728  0.79757077  0.33689018     0.14900
H2393       H  0.86576547  0.70572937  0.32103211     0.14900
C2394       C  0.92237406  0.69115366  0.27195309    -0.24100
H2395       H  0.92016693  0.83162855  0.38223404     0.05100
H2396       H  0.89729811  0.80498397  0.42184647     0.08300
H2397       H  0.87464025  0.82590504  0.37512946     0.08300
H2398       H  0.94544073  0.67689096  0.28460854     0.08300
H2399       H  0.92617078  0.69901523  0.23619991     0.08300
H2400       H  0.90021419  0.67285157  0.27311649     0.05100
C2401       C  0.75652456  0.90468783  0.37303856    -0.20700
C2402       C  0.75308086  0.87117060  0.35315105    -0.07300
C2403       C  0.74799982  0.86997671  0.30568106     0.13600
C2404       C  0.74570654  0.90160323  0.28049337    -0.20800
C2405       C  0.74826582  0.93469720  0.30097770    -0.07300
C2406       C  0.75390754  0.93608238  0.34787830     0.13600
C2407       C  0.75531234  0.97061361  0.37204371    -0.24100
H2408       H  0.76068614  0.90674183  0.40911244     0.14900
H2409       H  0.74098778  0.90056586  0.24439905     0.14900
C2410       C  0.74397192  0.83585066  0.28117637    -0.24100
H2411       H  0.75791604  0.96696923  0.40918354     0.05100
H2412       H  0.73136617  0.98568860  0.36526638     0.08300
H2413       H  0.77773607  0.98604396  0.36040608     0.08300
H2414       H  0.72153931  0.82124146  0.29463759     0.08300
H2415       H  0.76766209  0.81989280  0.28533917     0.08300
H2416       H  0.73961309  0.84001772  0.24438087     0.05100
C2417       C  0.77877285  0.61683106  0.32044679    -0.20700
C2418       C  0.75577243  0.62390265  0.35563242    -0.07300
C2419       C  0.72910200  0.59936139  0.36409271     0.13600
C2420       C  0.72665352  0.56851068  0.33857911    -0.20800
C2421       C  0.74968209  0.56113842  0.30372179    -0.07300
C2422       C  0.77572220  0.58606893  0.29412845     0.13600
C2423       C  0.79911239  0.58120650  0.25461438    -0.24100
H2424       H  0.79913649  0.63541162  0.31346621     0.14900
H2425       H  0.70579951  0.55034059  0.34497865     0.14900
C2426       C  0.70196715  0.60630527  0.39884499    -0.24100
H2427       H  0.81775880  0.60306492  0.25122123     0.05100
H2428       H  0.78342778  0.58037698  0.22322013     0.08300
H2429       H  0.81378565  0.55644079  0.25875342     0.08300
H2430       H  0.68955651  0.63199282  0.39162642     0.08300
H2431       H  0.71359041  0.60639882  0.43310819     0.08300
H2432       H  0.68162389  0.58590321  0.39867973     0.05100
loop_ 
_geom_bond_atom_site_label_1 
_geom_bond_atom_site_label_2 
_geom_bond_distance 
_geom_bond_site_symmetry_2 
_ccdc_geom_bond_type 
O1          Zr37   2.520       .  S
O1           C12   1.308       .  A
O2          Zr36   2.484       .  S
O2           C13   1.301       .  A
O3           Zr9   2.416       .  S
O3           C14   1.286       .  A
O4           Zr9   2.411       .  S
O4           C15   1.284       .  A
O5          Zr39   2.437       .  S
O5           C15   1.290       .  A
O6          Zr38   2.408       .  S
O6           C14   1.285       .  A
O7           Zr9   2.414       .  S
O7           C13   1.286       .  A
O8           Zr9   2.427       .  S
O8           C12   1.289       .  A
Zr9          O10   2.334       .  S
Zr9          O11   2.336       .  S
Zr9          O19   2.334       .  S
Zr9          O17   2.333       .  S
O10         Zr36   2.356       .  S
O10         Zr39   2.327       .  S
O11         Zr37   2.365       .  S
O11         Zr38   2.344       .  S
C12         C594   1.507       .  S
C13         C453   1.499       .  S
C14         C482   1.449       .  S
C15         C501   1.461       .  S
H16          O17   0.966       .  S
O17         Zr36   2.357       .  S
O17         Zr38   2.333       .  S
H18          O19   0.965       .  S
O19         Zr37   2.364       .  S
O19         Zr39   2.331       .  S
O20         Zr36   2.494       .  S
O20          C43   1.303       .  A
O21         Zr37   2.512       .  S
O21          C44   1.307       .  A
O22         Zr38   2.429       .  S
O22          C45   1.292       .  A
O23         Zr39   2.395       .  S
O23          C46   1.282       .  A
O24         Zr39   2.402       .  S
O24          C47   1.284       .  A
O25         Zr38   2.430       .  S
O25          C48   1.291       .  A
O26         Zr40   2.408       .  S
O26          C49   1.284       .  A
O27         Zr40   2.425       .  S
O27          C50   1.288       .  A
O28         Zr38   2.420       .  S
O28          C49   1.288       .  A
O29         Zr39   2.427       .  S
O29          C50   1.288       .  A
O30         Zr36   2.492       .  S
O30          C45   1.302       .  A
O31         Zr37   2.511       .  S
O31          C48   1.307       .  A
O32         Zr37   2.506       .  S
O32          C47   1.306       .  A
O33         Zr36   2.500       .  S
O33          C46   1.304       .  A
O34         Zr40   2.423       .  S
O34          C43   1.291       .  A
O35         Zr40   2.416       .  S
O35          C44   1.289       .  A
Zr36         O42   2.355       .  S
Zr36         O54   2.353       .  S
Zr37         O41   2.371       .  S
Zr37         O52   2.370       .  S
Zr38         O42   2.328       .  S
Zr38         O52   2.334       .  S
Zr39         O41   2.336       .  S
Zr39         O54   2.331       .  S
Zr40         O41   2.335       .  S
Zr40         O42   2.333       .  S
Zr40         O54   2.329       .  S
Zr40         O52   2.342       .  S
C43         C466   1.513       .  S
C44         C578   1.519       .  S
C45         C418   1.502       .  S
C46         C437   1.498       .  S
C47         C546   1.504       .  S
C48         C565   1.505       .  S
C49         C530   1.454       .  S
C50         C514   1.466       .  S
H51          O52   0.964       .  S
H53          O54   0.964       .  S
N55          H87   1.037       .  S
N55          C59   1.343       .  A
N55         C668   1.347   1_545  A
N56          C64   1.349       .  A
N56        C1279   1.348   1_455  A
N57          H88   1.038       .  S
N57          C61   1.350   1_565  A
N57         C670   1.348       .  A
N58          C66   1.349       .  A
N58        C1281   1.350   1_455  A
C59          C67   1.387       .  A
C59          C75   1.401       .  A
C60         N663   1.346       .  A
C60          C76   1.401       .  A
C60          C68   1.386       .  A
C61          C69   1.387       .  A
C61          C78   1.409       .  A
C62         N665   1.349       .  A
C62          C77   1.413       .  A
C62          C70   1.387       .  A
C63        N1272   1.347       .  A
C63          C75   1.402       .  A
C63          C71   1.385       .  A
C64          C78   1.410       .  A
C64          C72   1.387       .  A
C65        N1274   1.345       .  A
C65          C73   1.386       .  A
C65          C76   1.404       .  A
C66          C74   1.387       .  A
C66          C77   1.410       .  A
C67         C676   1.374   1_545  A
C67          H79   1.083       .  S
C68         C675   1.375       .  A
C68          H80   1.082       .  S
C69         C678   1.375   1_545  A
C69          H81   1.081       .  S
C70         C677   1.375       .  A
C70          H82   1.083       .  S
C71        C1288   1.368       .  A
C71          H83   1.082       .  S
C72        C1287   1.368       .  A
C72          H84   1.082       .  S
C73        C1290   1.372       .  A
C73          H85   1.082       .  S
C74        C1289   1.371   1_455  A
C74          H86   1.082       .  S
C75         C485   1.462       .  S
C76         C533   1.467       .  S
C77         C517   1.480       .  S
C78         C498   1.480       .  S
O89        Zr733   2.503       .  S
O89         C100   1.305       .  A
O90        Zr124   2.521       .  S
O90         C101   1.310       .  A
O91       Zr1313   2.426   1_455  S
O91         C102   1.288       .  A
O92         Zr97   2.441       .  S
O92         C103   1.291       .  A
O93        Zr127   2.407       .  S
O93         C103   1.284       .  A
O94        Zr126   2.394   1_556  S
O94         C102   1.282       .  A
O95         Zr97   2.415   1_554  S
O95         C101   1.286       .  A
O96         Zr97   2.403       .  S
O96         C100   1.283       .  A
Zr97       O1307   2.413       .  S
Zr97         O98   2.336   1_556  S
Zr97        O107   2.328       .  S
Zr97       O1315   2.330       .  S
Zr97       O1321   2.343   1_556  S
O98        Zr124   2.370       .  S
O98        Zr127   2.338   1_554  S
O99        Zr126   2.317   1_556  S
O99       Zr1313   2.328   1_455  S
O99       Zr1949   2.353   1_455  S
C100        C402   1.506       .  S
C101        C261   1.520       .  S
C102        C290   1.459       .  S
C103        C306   1.459       .  S
H104        O105   0.967       .  S
O105       Zr126   2.337       .  S
O105      Zr1313   2.336   1_454  S
O105      Zr1340   2.369   1_455  S
H106        O107   0.964       .  S
O107       Zr127   2.333       .  S
O107       Zr733   2.355       .  S
O108       Zr732   2.512   1_545  S
O108        C131   1.306       .  A
O109       Zr125   2.521       .  S
O109        C132   1.308       .  A
O110       Zr126   2.422       .  S
O110        C133   1.289       .  A
O111       Zr127   2.438   1_554  S
O111        C134   1.292       .  A
O112       Zr735   2.430       .  S
O112        C135   1.290       .  A
O113       Zr734   2.437       .  S
O113        C136   1.293       .  A
O114      Zr1344   2.416   1_455  S
O114        C137   1.286       .  A
O115       Zr128   2.419       .  S
O115        C138   1.287       .  A
O116       Zr734   2.410   1_545  S
O116        C137   1.284       .  A
O117       Zr735   2.416       .  S
O117        C138   1.287       .  A
O118      Zr1340   2.511   1_455  S
O118        C133   1.307       .  A
O119      Zr1341   2.491   1_465  S
O119        C136   1.302       .  A
O120       Zr125   2.506       .  S
O120        C135   1.305       .  A
O121       Zr124   2.496       .  S
O121        C134   1.303       .  A
O122       Zr128   2.411   1_554  S
O122        C131   1.288       .  A
O123       Zr128   2.390       .  S
O123        C132   1.284       .  A
Zr124       O716   2.522       .  S
Zr124      O1334   2.487       .  S
Zr124      O1321   2.364       .  S
Zr124      O1954   2.365       .  S
Zr124       O750   2.356       .  S
Zr125       O697   2.505   1_545  S
Zr125      O1335   2.494   1_545  S
Zr125       O129   2.352       .  S
Zr125      O1923   2.359   1_545  S
Zr125       O715   2.368   1_545  S
Zr125      O1356   2.357       .  S
Zr126       O721   2.432   1_554  S
Zr126       O724   2.390       .  S
Zr126       O738   2.334       .  S
Zr126       O748   2.338   1_554  S
Zr127       O720   2.425       .  S
Zr127       O725   2.394       .  S
Zr127       O737   2.339       .  S
Zr127       O750   2.335   1_556  S
Zr128      O1330   2.446       .  S
Zr128       O129   2.337       .  S
Zr128       O142   2.338   1_556  S
Zr128      O1346   2.331   1_556  S
Zr128      O1356   2.329       .  S
O129       Zr735   2.333       .  S
O130      Zr1948   2.360   1_445  S
O130       Zr734   2.342   1_544  S
O130      Zr1344   2.326   1_454  S
C131        C274   1.520       .  S
C132        C386   1.511       .  S
C133        C226   1.506       .  S
C134        C242   1.498       .  S
C135        C354   1.496       .  S
C136        C373   1.506       .  S
C137        C338   1.447       .  S
C138        C325   1.460       .  S
H139        O140   0.963       .  S
O140      Zr1341   2.344   1_455  S
O140       Zr734   2.329   1_545  S
O140      Zr1344   2.332   1_455  S
H141        O142   0.967       .  S
O142       Zr732   2.360   1_545  S
O142       Zr735   2.339   1_554  S
N143        H175   1.041       .  S
N143        C148   1.348       .  A
N143        C147   1.347       .  A
N144        C151   1.347       .  A
N144        C152   1.348       .  A
N145        H176   1.040       .  S
N145        C150   1.351       .  A
N145        C149   1.350       .  A
N146        C153   1.345       .  A
N146        C154   1.344       .  A
C147        C155   1.389       .  A
C147        C163   1.405       .  A
C148        C164   1.402       .  A
C148        C156   1.387       .  A
C149        C157   1.388       .  A
C149        C166   1.410       .  A
C150        C165   1.408       .  A
C150        C158   1.387       .  A
C151        C163   1.406       .  A
C151        C159   1.384       .  A
C152        C166   1.405       .  A
C152        C160   1.384       .  A
C153        C161   1.386       .  A
C153        C164   1.399       .  A
C154        C162   1.387       .  A
C154        C165   1.402       .  A
C155        C156   1.368       .  A
C155        H167   1.082       .  S
C156        H168   1.082       .  S
C157        C158   1.370       .  A
C157        H169   1.082       .  S
C158        H170   1.082       .  S
C159        C160   1.371       .  A
C159        H171   1.080       .  S
C160        H172   1.078       .  S
C161        C162   1.372       .  A
C161        H173   1.082       .  S
C162        H174   1.083       .  S
C163        C293   1.472       .  S
C164        C341   1.464       .  S
C165        C322   1.472       .  S
C166        C309   1.476       .  S
C177        C178   1.524       .  S
C177        C181   1.540       .  S
C177       C1399   1.559       .  S
C177        C549   1.552       .  S
C178        H185   1.087       .  S
C178       C1395   1.359       .  D
C179        C180   1.563       .  S
C179       C1394   1.359       .  D
C179        C277   1.502       .  S
C180        C184   1.547       .  S
C180        C182   1.563       .  S
C180        H186   1.109       .  S
C181        H187   1.085       .  S
C181       C1398   1.371       .  D
C182       C1397   1.368       .  D
C182        C258   1.517       .  S
C183       C1393   1.561       .  S
C183        H188   1.085       .  S
C183        C184   1.379       .  D
C184        C562   1.511       .  S
C189        C190   1.531       .  S
C189        C195   1.552       .  S
C189        C801   1.544       .  S
C189        C229   1.564       .  S
C190        H197   1.087       .  S
C190        C191   1.361       .  D
C191        C192   1.560       .  S
C191        C581   1.505       .  S
C192        C196   1.549       .  S
C192        C802   1.560       .  S
C192        H198   1.107       .  S
C193        C797   1.550       .  S
C193        H199   1.080       .  S
C193        C194   1.366       .  D
C194        C800   1.556   1_545  S
C194        C597   1.508       .  S
C195        H200   1.083       .  S
C195        C196   1.377       .  D
C196        C245   1.510       .  S
C201        C202   1.536       .  S
C201        C205   1.521       .  S
C201       C1423   1.561       .  S
C201        C434   1.545       .  S
C202        H209   1.085       .  S
C202       C1419   1.366       .  D
C203        C204   1.558       .  S
C203       C1418   1.368       .  D
C203        C405   1.507       .  S
C204        C208   1.536       .  S
C204        C206   1.555       .  S
C204        H210   1.110       .  S
C205        H211   1.087       .  S
C205       C1422   1.356       .  D
C206       C1421   1.358       .  D
C206        C389   1.490       .  S
C207       C1417   1.561       .  S
C207        H212   1.082       .  S
C207        C208   1.377       .  D
C208        C421   1.507       .  S
C213        C219   1.550       .  S
C213        C217   1.531       .  S
C213        C822   1.549       .  S
C213        C370   1.563       .  S
C214        C821   1.542   1_545  S
C214        H221   1.081       .  S
C214        C215   1.370       .  D
C215        C824   1.558   1_545  S
C215        C450   1.511       .  S
C216        C220   1.536       .  S
C216        C218   1.562       .  S
C216        C823   1.558       .  S
C216        H222   1.108       .  S
C217        H223   1.087       .  S
C217        C218   1.366       .  D
C218        C469   1.508       .  S
C219        H224   1.085       .  S
C219        C220   1.373       .  D
C220        C357   1.498       .  S
C225        C226   1.405       .  A
C225        C230   1.411       .  A
C225        H232   1.080       .  S
C226        C835   1.410       .  A
C227        C228   1.414       .  A
C227        C834   1.412   1_545  A
C227        C234   1.508       .  S
C228        C837   1.422       .  A
C228        H233   1.074       .  S
C229        C230   1.428       .  A
C229        C836   1.422       .  A
C230        C231   1.512       .  S
C231        H235   1.109       .  S
C231        H236   1.107       .  S
C231        H237   1.106       .  S
C234        H238   1.106       .  S
C234        H239   1.111       .  S
C234        H240   1.110       .  S
C241        C242   1.406       .  A
C241        C246   1.418       .  A
C241        H248   1.084       .  S
C242        C851   1.418       .  A
C243        C244   1.409       .  A
C243        C850   1.415       .  A
C243        C250   1.505       .  S
C244        C853   1.404       .  A
C244        H249   1.082       .  S
C245        C246   1.421       .  A
C245        C852   1.405       .  A
C246        C247   1.506       .  S
C247        H251   1.111       .  S
C247        H252   1.110       .  S
C247        H253   1.108       .  S
C250        H254   1.106       .  S
C250        H255   1.111       .  S
C250        H256   1.111       .  S
C257        C262   1.411       .  A
C257       C1474   1.400       .  A
C257        H264   1.080       .  S
C258        C259   1.426       .  A
C258       C1473   1.400       .  A
C259        C260   1.415       .  A
C259        C266   1.508       .  S
C260        C261   1.406       .  A
C260        H265   1.084       .  S
C261       C1478   1.435       .  A
C262       C1477   1.431       .  A
C262        C263   1.511       .  S
C263        H267   1.111       .  S
C263        H268   1.109       .  S
C263        H269   1.111       .  S
C266        H270   1.110       .  S
C266        H271   1.107       .  S
C266        H272   1.111       .  S
C273        C274   1.419       .  A
C273        C278   1.406       .  A
C273        H280   1.083       .  S
C274       C1491   1.420       .  A
C275        C276   1.416       .  A
C275       C1490   1.420       .  A
C275        C282   1.506       .  S
C276       C1493   1.410       .  A
C276        H281   1.084       .  S
C277        C278   1.408       .  A
C277       C1492   1.412       .  A
C278        C279   1.506       .  S
C279        H283   1.111       .  S
C279        H284   1.105       .  S
C279        H285   1.110       .  S
C282        H286   1.109   1_655  S
C282        H287   1.110       .  S
C282        H288   1.111       .  S
C289        C290   1.403       .  A
C289        C294   1.397       .  A
C289        H296   1.085       .  S
C290        C291   1.412   1_556  A
C291        C292   1.394   1_554  A
C291        C298   1.506       .  S
C292        C293   1.399       .  A
C292        H297   1.085   1_556  S
C293        C294   1.410       .  A
C294        C295   1.508       .  S
C295        H299   1.111       .  S
C295        H300   1.109       .  S
C295        H301   1.110       .  S
C298        H302   1.110       .  S
C298        H303   1.109       .  S
C298        H304   1.110       .  S
C305        C306   1.402       .  A
C305        C310   1.398       .  A
C305        H312   1.085       .  S
C306        C307   1.406   1_556  A
C307        C308   1.399   1_554  A
C307        C314   1.506       .  S
C308        C309   1.404       .  A
C308        H313   1.084   1_556  S
C309        C310   1.410       .  A
C310        C311   1.507       .  S
C311        H315   1.110       .  S
C311        H316   1.111       .  S
C311        H317   1.109       .  S
C314        H318   1.110       .  S
C314        H319   1.111       .  S
C314        H320   1.111       .  S
C321        C322   1.399       .  A
C321        C326   1.396       .  A
C321        H328   1.084       .  S
C322        C323   1.412       .  A
C323        C324   1.395   1_556  A
C323        C330   1.509   1_556  S
C324        C325   1.398   1_554  A
C324        H329   1.079       .  S
C325        C326   1.413       .  A
C326        C327   1.507       .  S
C327        H331   1.111       .  S
C327        H332   1.108       .  S
C327        H333   1.109       .  S
C330        H334   1.108       .  S
C330        H335   1.110       .  S
C330        H336   1.111       .  S
C337        C338   1.395   1_554  A
C337        C342   1.396       .  A
C337        H344   1.085       .  S
C338        C339   1.410       .  A
C339        C340   1.392       .  A
C339        C346   1.505       .  S
C340        C341   1.395       .  A
C340        H345   1.085       .  S
C341        C342   1.414   1_556  A
C342        C343   1.507       .  S
C343        H347   1.110       .  S
C343        H348   1.111       .  S
C343        H349   1.108       .  S
C346        H350   1.104       .  S
C346        H351   1.109       .  S
C346        H352   1.111       .  S
C353        C354   1.406   1_565  A
C353        C358   1.415       .  A
C353        H360   1.084       .  S
C354        C355   1.418       .  A
C355        C964   1.412       .  A
C355        C970   1.504       .  S
C356        C357   1.409       .  A
C356        C963   1.415       .  A
C356        H361   1.084       .  S
C357        C966   1.414       .  A
C358        C965   1.415       .  A
C358        C359   1.505       .  S
C359        H363   1.111       .  S
C359        H364   1.109       .  S
C359        H973   1.111       .  S
C362        C963   1.505       .  S
C362        H367   1.110       .  S
C362        H368   1.111       .  S
C362        H974   1.110       .  S
H365        C967   1.107       .  S
H366        C970   1.109       .  S
C369        C374   1.418       .  A
C369        C978   1.421   1_545  A
C369        H376   1.078       .  S
C370        C371   1.432       .  A
C370        C977   1.420       .  A
C371        C372   1.412       .  A
C371        C378   1.510       .  S
C372        C981   1.403       .  A
C372        H377   1.085       .  S
C373        C374   1.415   1_565  A
C373        C980   1.406       .  A
C374        C375   1.508       .  S
C375        H379   1.111       .  S
C375        H381   1.110       .  S
C375        H988   1.109       .  S
C378        H382   1.101       .  S
C378        H384   1.110       .  S
C378        H991   1.111       .  S
H380        C983   1.111       .  S
H383        C986   1.111       .  S
C385        C390   1.404       .  A
C385       C1602   1.418   1_455  A
C385        H392   1.083       .  S
C386        C387   1.416       .  A
C386       C1601   1.419       .  A
C387        C388   1.417       .  A
C387        C394   1.504       .  S
C388        C389   1.410       .  A
C388        H393   1.084       .  S
C389       C1606   1.405       .  A
C390       C1605   1.406   1_455  A
C390        C391   1.508       .  S
C391        H395   1.111       .  S
C391        H396   1.106       .  S
C391        H397   1.111       .  S
C394        H398   1.111       .  S
C394        H399   1.110       .  S
C394        H400   1.111       .  S
C401        C402   1.404       .  A
C401        C406   1.412       .  A
C401        H408   1.084       .  S
C402       C1619   1.430       .  A
C403        C404   1.406       .  A
C403       C1618   1.432       .  A
C403        C410   1.512       .  S
C404       C1621   1.396   1_655  A
C404        H409   1.081       .  S
C405        C406   1.428       .  A
C405       C1620   1.398       .  A
C406        C407   1.509       .  S
C407        H411   1.111       .  S
C407        H412   1.104       .  S
C407        H413   1.110       .  S
C410        H415   1.110       .  S
C410        H416   1.111       .  S
C410       H1630   1.108       .  S
H414       C1626   1.108       .  S
C417        C418   1.406       .  A
C417        C422   1.404       .  A
C417        H424   1.084       .  S
C418        C419   1.418       .  A
C419        C420   1.419       .  A
C419        C426   1.506       .  S
C420        C421   1.412       .  A
C420        H425   1.084       .  S
C421        C422   1.417       .  A
C422        C423   1.508       .  S
C423        H427   1.109       .  S
C423        H428   1.105       .  S
C423        H429   1.107       .  S
C426        H430   1.109       .  S
C426        H431   1.110       .  S
C426        H432   1.111       .  S
C433        C434   1.404       .  A
C433        C438   1.400       .  A
C433        H440   1.080       .  S
C434        C435   1.432       .  A
C435        C436   1.414       .  A
C435        C442   1.510       .  S
C436        C437   1.403       .  A
C436        H441   1.084       .  S
C437        C438   1.425       .  A
C438        C439   1.513       .  S
C439        H443   1.111       .  S
C439        H444   1.109       .  S
C439        H445   1.109       .  S
C442        H446   1.111       .  S
C442        H447   1.105       .  S
C442        H448   1.110       .  S
C449        C450   1.400       .  A
C449        C454   1.408       .  A
C449        H456   1.077       .  S
C450        C451   1.427       .  A
C451        C452   1.409       .  A
C451        C458   1.509       .  S
C452        C453   1.403       .  A
C452        H457   1.084       .  S
C453        C454   1.425       .  A
C454        C455   1.511       .  S
C455        H459   1.111       .  S
C455        H460   1.111       .  S
C455        H461   1.109       .  S
C458        H462   1.107       .  S
C458        H463   1.110       .  S
C458        H464   1.111       .  S
C465        C466   1.414       .  A
C465        C470   1.407       .  A
C465        H472   1.083       .  S
C466        C467   1.420       .  A
C467        C468   1.416       .  A
C467        C474   1.506       .  S
C468        C469   1.413       .  A
C468        H473   1.084       .  S
C469        C470   1.410       .  A
C470        C471   1.501       .  S
C471        H475   1.111       .  S
C471        H476   1.106       .  S
C471        H477   1.111       .  S
C474        H478   1.110       .  S
C474        H479   1.110       .  S
C474        H480   1.111       .  S
C481        C482   1.396       .  A
C481        C486   1.394       .  A
C481        H488   1.085       .  S
C482        C483   1.412       .  A
C483        C484   1.392       .  A
C483        C490   1.505       .  S
C484        C485   1.395       .  A
C484        H489   1.084       .  S
C485        C486   1.414       .  A
C486        C487   1.508       .  S
C487        H491   1.110       .  S
C487        H492   1.108       .  S
C487        H493   1.111       .  S
C490        H494   1.110       .  S
C490        H495   1.108       .  S
C490        H496   1.111       .  S
C497        C498   1.399       .  A
C497        C502   1.398       .  A
C497        H504   1.084       .  S
C498        C499   1.419       .  A
C499        C500   1.398       .  A
C499        C506   1.508       .  S
C500        C501   1.396       .  A
C500        H505   1.084       .  S
C501        C502   1.412       .  A
C502        C503   1.504       .  S
C503        H507   1.108       .  S
C503        H508   1.111       .  S
C503        H509   1.110       .  S
C506        H510   1.108       .  S
C506        H511   1.110       .  S
C506        H512   1.111       .  S
C513        C514   1.405       .  A
C513        C518   1.401       .  A
C513        H520   1.085       .  S
C514        C515   1.410       .  A
C515        C516   1.398       .  A
C515        C522   1.508       .  S
C516        C517   1.403       .  A
C516        H521   1.085       .  S
C517        C518   1.413       .  A
C518        C519   1.509       .  S
C519        H523   1.111       .  S
C519        H524   1.108       .  S
C519        H525   1.111       .  S
C522        H526   1.110       .  S
C522        H527   1.109       .  S
C522        H528   1.111       .  S
C529        C530   1.401       .  A
C529        C534   1.394       .  A
C529        H536   1.084       .  S
C530        C531   1.408       .  A
C531        C532   1.398       .  A
C531        C538   1.507       .  S
C532        C533   1.402       .  A
C532        H537   1.084       .  S
C533        C534   1.406       .  A
C534        C535   1.507       .  S
C535        H539   1.111       .  S
C535        H540   1.110       .  S
C535        H541   1.110       .  S
C538        H542   1.110       .  S
C538        H543   1.110       .  S
C538        H544   1.111       .  S
C545        C546   1.403       .  A
C545        C550   1.415       .  A
C545        H552   1.084       .  S
C546        C547   1.426       .  A
C547        C548   1.405       .  A
C547        C554   1.514       .  S
C548        C549   1.407       .  A
C548        H553   1.080       .  S
C549        C550   1.431       .  A
C550        C551   1.508       .  S
C551        H555   1.111       .  S
C551        H556   1.110       .  S
C551        H557   1.105       .  S
C554        H558   1.109       .  S
C554        H559   1.111       .  S
C554        H560   1.111       .  S
C561        C562   1.404       .  A
C561        C566   1.412       .  A
C561        H568   1.084       .  S
C562        C563   1.420       .  A
C563        C564   1.419       .  A
C563        C570   1.504       .  S
C564        C565   1.407       .  A
C564        H569   1.084       .  S
C565        C566   1.422       .  A
C566        C567   1.510       .  S
C567        H571   1.111       .  S
C567        H572   1.109       .  S
C567        H573   1.110       .  S
C570        H574   1.109       .  S
C570        H575   1.108       .  S
C570        H576   1.111       .  S
C577        C578   1.420       .  A
C577        C582   1.409       .  A
C577        H584   1.083       .  S
C578        C579   1.420       .  A
C579        C580   1.418       .  A
C579        C586   1.506       .  S
C580        C581   1.413       .  A
C580        H585   1.084       .  S
C581        C582   1.407       .  A
C582        C583   1.507       .  S
C583        H587   1.111       .  S
C583        H588   1.111       .  S
C583        H589   1.108       .  S
C586        H590   1.111       .  S
C586        H591   1.110       .  S
C586        H592   1.111       .  S
C593        C594   1.406       .  A
C593        C598   1.419       .  A
C593        H600   1.084       .  S
C594        C595   1.425       .  A
C595        C596   1.411       .  A
C595        C602   1.509       .  S
C596        C597   1.402       .  A
C596        H601   1.084       .  S
C597        C598   1.418       .  A
C598        C599   1.500       .  S
C599        H603   1.111       .  S
C599        H604   1.109       .  S
C599        H605   1.109       .  S
C602        H606   1.111       .  S
C602        H607   1.108       .  S
C602        H608   1.111       .  S
O609       Zr645   2.520       .  S
O609        C620   1.308       .  A
O610       Zr644   2.498       .  S
O610        C621   1.304       .  A
O611       Zr617   2.419       .  S
O611        C622   1.288       .  A
O612       Zr617   2.420       .  S
O612        C623   1.286       .  A
O613       Zr647   2.429       .  S
O613        C623   1.289       .  A
O614       Zr646   2.410       .  S
O614        C622   1.285       .  A
O615       Zr617   2.429       .  S
O615        C621   1.289       .  A
O616       Zr617   2.421       .  S
O616        C620   1.289       .  A
Zr617       O618   2.329       .  S
Zr617       O619   2.342       .  S
Zr617       O627   2.343       .  S
Zr617       O625   2.332       .  S
O618       Zr644   2.352       .  S
O618       Zr647   2.333       .  S
O619       Zr645   2.367       .  S
O619       Zr646   2.341       .  S
C620       C1202   1.501       .  S
C621       C1061   1.511       .  S
C622       C1090   1.457       .  S
C623       C1109   1.461       .  S
H624        O625   0.964       .  S
O625       Zr644   2.355       .  S
O625       Zr646   2.341       .  S
H626        O627   0.967       .  S
O627       Zr645   2.364       .  S
O627       Zr647   2.329       .  S
O628       Zr644   2.494       .  S
O628        C651   1.303       .  A
O629       Zr645   2.509       .  S
O629        C652   1.306       .  A
O630       Zr646   2.422       .  S
O630        C653   1.290       .  A
O631       Zr647   2.388       .  S
O631        C654   1.281       .  A
O632       Zr647   2.414       .  S
O632        C655   1.286       .  A
O633       Zr646   2.431       .  S
O633        C656   1.290       .  A
O634       Zr648   2.406       .  S
O634        C657   1.284       .  A
O635       Zr648   2.420       .  S
O635        C658   1.287       .  A
O636       Zr646   2.426       .  S
O636        C657   1.288       .  A
O637       Zr647   2.424       .  S
O637        C658   1.288       .  A
O638       Zr644   2.505       .  S
O638        C653   1.305       .  A
O639       Zr645   2.506       .  S
O639        C656   1.306       .  A
O640       Zr645   2.512       .  S
O640        C655   1.307       .  A
O641       Zr644   2.508       .  S
O641        C654   1.306       .  A
O642       Zr648   2.431       .  S
O642        C651   1.292       .  A
O643       Zr648   2.419       .  S
O643        C652   1.290       .  A
Zr644       O650   2.355       .  S
Zr644       O662   2.360       .  S
Zr645       O649   2.369       .  S
Zr645       O660   2.375       .  S
Zr646       O650   2.327       .  S
Zr646       O660   2.334       .  S
Zr647       O649   2.330       .  S
Zr647       O662   2.336       .  S
Zr648       O649   2.340       .  S
Zr648       O650   2.331       .  S
Zr648       O662   2.330       .  S
Zr648       O660   2.345       .  S
C651       C1074   1.512       .  S
C652       C1186   1.516       .  S
C653       C1026   1.502       .  S
C654       C1045   1.499       .  S
C655       C1154   1.510       .  S
C656       C1173   1.505       .  S
C657       C1138   1.455       .  S
C658       C1122   1.465       .  S
H659        O660   0.965       .  S
H661        O662   0.964       .  S
N663        H695   1.039       .  S
N663        C667   1.344       .  A
N664       C1887   1.348   1_455  A
N664        C672   1.348       .  A
N665        H696   1.036       .  S
N665        C669   1.351       .  A
N666       C1889   1.348   1_455  A
N666        C674   1.347       .  A
C667        C675   1.386       .  A
C667        C683   1.402       .  A
C668        C684   1.402       .  A
C668        C676   1.386       .  A
C669        C677   1.387       .  A
C669        C686   1.412       .  A
C670        C685   1.410       .  A
C670        C678   1.387       .  A
C671       N1880   1.347       .  A
C671        C683   1.403       .  A
C671        C679   1.385       .  A
C672        C686   1.410       .  A
C672        C680   1.388       .  A
C673       N1882   1.346       .  A
C673        C681   1.386       .  A
C673        C684   1.406       .  A
C674        C682   1.386       .  A
C674        C685   1.406       .  A
C675        H687   1.083       .  S
C676        H688   1.083       .  S
C677        H689   1.082       .  S
C678        H690   1.083       .  S
C679       C1896   1.368       .  A
C679        H691   1.082       .  S
C680       C1895   1.369       .  A
C680        H692   1.082       .  S
C681       C1898   1.371       .  A
C681        H693   1.082       .  S
C682       C1897   1.371   1_455  A
C682        H694   1.082       .  S
C683       C1093   1.469       .  S
C684       C1141   1.469       .  S
C685       C1125   1.477       .  S
C686       C1106   1.479       .  S
O697        C708   1.306       .  A
O698       Zr732   2.504       .  S
O698        C709   1.305       .  A
O699      Zr1921   2.420   1_454  S
O699        C710   1.287       .  A
O700       Zr705   2.418   1_554  S
O700        C711   1.287       .  A
O701       Zr735   2.413   1_564  S
O701        C711   1.286       .  A
O702       Zr734   2.411       .  S
O702        C710   1.286   1_556  A
O703       Zr705   2.420   1_554  S
O703        C709   1.288       .  A
O704       Zr705   2.419       .  S
O704        C708   1.287       .  A
Zr705      O1915   2.430       .  S
Zr705       O706   2.338   1_556  S
Zr705      O1923   2.326       .  S
Zr705       O715   2.342       .  S
Zr705      O1929   2.336   1_556  S
O706       Zr732   2.356       .  S
O706       Zr735   2.334   1_564  S
O707      Zr1921   2.343   1_455  S
O707      Zr1341   2.364   1_465  S
O707       Zr734   2.329       .  S
C708       C1010   1.511       .  S
C709        C869   1.493       .  S
C710        C898   1.454       .  S
C711        C914   1.455       .  S
H712        O713   0.966       .  S
O713      Zr1921   2.340   1_454  S
O713      Zr1948   2.353   1_455  S
O713       Zr734   2.338   1_554  S
H714        O715   0.964       .  S
O715       Zr735   2.344   1_565  S
O716        C739   1.309       .  A
O717       Zr733   2.495       .  S
O717        C740   1.303       .  A
O718       Zr734   2.416   1_554  S
O718        C741   1.288       .  A
O719       Zr735   2.438   1_554  S
O719        C742   1.292       .  A
O720        C743   1.290       .  A
O721        C744   1.290       .  A
O722      Zr1952   2.413   1_454  S
O722        C745   1.287       .  A
O723       Zr736   2.419       .  S
O723        C746   1.288       .  A
O724        C745   1.281       .  A
O725        C746   1.282       .  A
O726      Zr1948   2.516   1_455  S
O726        C741   1.308       .  A
O727      Zr1949   2.487   1_455  S
O727        C744   1.302       .  A
O728       Zr733   2.490       .  S
O728        C743   1.302       .  A
O729       Zr732   2.494       .  S
O729        C742   1.303   1_565  A
O730       Zr736   2.424   1_554  S
O730        C739   1.291       .  A
O731       Zr736   2.418       .  S
O731        C740   1.290       .  A
Zr732      O1942   2.478       .  S
Zr732      O1929   2.369       .  S
Zr732      O1346   2.365   1_565  S
Zr733      O1943   2.501       .  S
Zr733      O1315   2.348       .  S
Zr733       O737   2.362       .  S
Zr733      O1964   2.354       .  S
Zr736      O1938   2.429       .  S
Zr736       O737   2.335       .  S
Zr736      O1954   2.335   1_556  S
Zr736       O750   2.336   1_556  S
Zr736      O1964   2.336       .  S
O738      Zr1340   2.359   1_455  S
O738      Zr1952   2.333   1_454  S
C739        C882   1.526       .  S
C740        C994   1.513       .  S
C741        C834   1.502       .  S
C742        C850   1.497       .  S
C743        C962   1.489       .  S
C744        C981   1.495       .  S
C745        C946   1.447       .  S
C746        C933   1.451   1_556  S
H747        O748   0.967       .  S
O748      Zr1949   2.361   1_455  S
O748      Zr1952   2.336   1_455  S
H749        O750   0.965       .  S
N751        H783   1.042       .  S
N751        C756   1.348       .  A
N751        C755   1.349       .  A
N752        C759   1.343       .  A
N752        C760   1.345       .  A
N753        H784   1.040       .  S
N753        C758   1.347       .  A
N753        C757   1.346       .  A
N754        C761   1.341       .  A
N754        C762   1.342       .  A
C755        C763   1.387       .  A
C755        C771   1.405       .  A
C756        C772   1.406       .  A
C756        C764   1.388       .  A
C757        C765   1.388   1_554  A
C757        C774   1.404       .  A
C758        C773   1.403       .  A
C758        C766   1.387   1_554  A
C759        C771   1.401       .  A
C759        C767   1.386       .  A
C760        C774   1.403       .  A
C760        C768   1.386       .  A
C761        C769   1.387       .  A
C761        C772   1.397       .  A
C762        C770   1.386       .  A
C762        C773   1.399       .  A
C763        C764   1.370       .  A
C763        H775   1.082       .  S
C764        H776   1.082       .  S
C765        C766   1.372       .  A
C765        H777   1.082       .  S
C766        H778   1.082       .  S
C767        C768   1.375       .  A
C767        H779   1.081       .  S
C768        H780   1.082       .  S
C769        C770   1.372       .  A
C769        H781   1.083       .  S
C770        H782   1.083       .  S
C771        C901   1.469       .  S
C772        C949   1.466       .  S
C773        C930   1.463       .  S
C774        C917   1.466       .  S
C785        C786   1.525       .  S
C785       C2007   1.561       .  S
C785        C789   1.539       .  S
C785       C1157   1.559       .  S
C786        H793   1.087       .  S
C786       C2003   1.363       .  D
C787        C788   1.564       .  S
C787       C2002   1.363       .  D
C787        C885   1.511       .  S
C788        C792   1.550       .  S
C788        C790   1.560       .  S
C788        H794   1.105       .  S
C789        H795   1.084       .  S
C789       C2006   1.371       .  D
C790       C2005   1.366       .  D
C790        C866   1.507       .  S
C791       C2001   1.558       .  S
C791        H796   1.084       .  S
C791        C792   1.378       .  D
C792       C1170   1.513       .  S
C797        C798   1.536   1_545  S
C797        C803   1.552       .  S
C797        C837   1.571       .  S
C798        H805   1.086       .  S
C798        C799   1.365       .  D
C799        C800   1.557       .  S
C799       C1189   1.509       .  S
C800        C804   1.546   1_565  S
C800        H806   1.108       .  S
C801        H807   1.082       .  S
C801        C802   1.367       .  D
C802       C1205   1.512       .  S
C803        H808   1.085       .  S
C803        C804   1.375       .  D
C804        C853   1.507       .  S
C809        C810   1.541       .  S
C809       C2031   1.549       .  S
C809        C813   1.522       .  S
C809       C1042   1.548       .  S
C810        H817   1.085       .  S
C810       C2027   1.372       .  D
C811        C812   1.565       .  S
C811       C2026   1.371       .  D
C811       C1013   1.518       .  S
C812        C816   1.536       .  S
C812        C814   1.563       .  S
C812        H818   1.108       .  S
C813        H819   1.087       .  S
C813       C2030   1.358       .  D
C814       C2029   1.365       .  D
C814        C997   1.509       .  S
C815       C2025   1.562       .  S
C815        H820   1.082       .  S
C815        C816   1.374       .  D
C816       C1029   1.506       .  S
C821        C827   1.558       .  S
C821        C825   1.528       .  S
C821        C978   1.560       .  S
C822        H829   1.077       .  S
C822        C823   1.369       .  D
C823       C1058   1.520       .  S
C824        C828   1.535       .  S
C824        C826   1.564       .  S
C824        H830   1.107       .  S
C825        H831   1.087       .  S
C825        C826   1.367       .  D
C826       C1077   1.516       .  S
C827        H832   1.085       .  S
C827        C828   1.373       .  D
C828        C965   1.499       .  S
C833        C834   1.406       .  A
C833        C838   1.415       .  A
C833        H840   1.085       .  S
C835        C836   1.416       .  A
C835        C842   1.504       .  S
C836        H841   1.076       .  S
C837        C838   1.432   1_545  A
C838        C839   1.514       .  S
C839        H843   1.110       .  S
C839        H844   1.106       .  S
C839        H845   1.106       .  S
C842        H846   1.111       .  S
C842        H847   1.111       .  S
C842        H848   1.110       .  S
C849        C850   1.406   1_565  A
C849        C854   1.418       .  A
C849        H856   1.084       .  S
C851        C852   1.409       .  A
C851        C858   1.509       .  S
C852        H857   1.084       .  S
C853        C854   1.420   1_545  A
C854        C855   1.505       .  S
C855        H859   1.111       .  S
C855        H860   1.110       .  S
C855        H861   1.109       .  S
C858        H862   1.108       .  S
C858        H863   1.111       .  S
C858        H864   1.111       .  S
C865       C2082   1.400       .  A
C865        C870   1.412       .  A
C865        H872   1.074       .  S
C866       C2081   1.405       .  A
C866        C867   1.420       .  A
C867        C868   1.418       .  A
C867        C874   1.502       .  S
C868        C869   1.405       .  A
C868        H873   1.084       .  S
C869       C2086   1.417       .  A
C870       C2085   1.429       .  A
C870        C871   1.510       .  S
C871        H875   1.111       .  S
C871        H876   1.109       .  S
C871        H877   1.111       .  S
C874        H878   1.108       .  S
C874        H879   1.108       .  S
C874        H880   1.111       .  S
C881        C882   1.421       .  A
C881        C886   1.413       .  A
C881        H888   1.083       .  S
C882       C2099   1.421       .  A
C883       C2098   1.419       .  A
C883        C884   1.416       .  A
C883        C890   1.504       .  S
C884       C2101   1.413       .  A
C884        H889   1.084   1_655  S
C885       C2100   1.413       .  A
C885        C886   1.408       .  A
C886        C887   1.507       .  S
C887        H891   1.111       .  S
C887        H892   1.111       .  S
C887        H893   1.108       .  S
C890        H894   1.106   1_655  S
C890        H895   1.110       .  S
C890        H896   1.111   1_655  S
C897        C898   1.398   1_556  A
C897        C902   1.395       .  A
C897        H904   1.085       .  S
C898        C899   1.413       .  A
C899        C900   1.396       .  A
C899        C906   1.508       .  S
C900        C901   1.398       .  A
C900        H905   1.084       .  S
C901        C902   1.412   1_554  A
C902        C903   1.508       .  S
C903        H907   1.111       .  S
C903        H908   1.110       .  S
C903        H909   1.109       .  S
C906        H910   1.109       .  S
C906        H911   1.110       .  S
C906        H912   1.111       .  S
C913        C914   1.400   1_556  A
C913        C918   1.397       .  A
C913        H920   1.085       .  S
C914        C915   1.411       .  A
C915        C916   1.394       .  A
C915        C922   1.509       .  S
C916        C917   1.398       .  A
C916        H921   1.085       .  S
C917        C918   1.413   1_554  A
C918        C919   1.508       .  S
C919        H923   1.111       .  S
C919        H924   1.110       .  S
C919        H925   1.108       .  S
C922        H926   1.111       .  S
C922        H927   1.110       .  S
C922        H928   1.111       .  S
C929        C930   1.401   1_556  A
C929        C934   1.396       .  A
C929        H936   1.084       .  S
C930        C931   1.406       .  A
C931        C932   1.391       .  A
C931        C938   1.508       .  S
C932        C933   1.400       .  A
C932        H937   1.085       .  S
C933        C934   1.412   1_554  A
C934        C935   1.509       .  S
C935        H939   1.109       .  S
C935        H940   1.110       .  S
C935        H941   1.111       .  S
C938        H942   1.111       .  S
C938        H943   1.109       .  S
C938        H944   1.111       .  S
C945        C946   1.399       .  A
C945        C950   1.388       .  A
C945        H952   1.086       .  S
C946        C947   1.409   1_554  A
C947        C948   1.395   1_556  A
C947        C954   1.509       .  S
C948        C949   1.404       .  A
C948        H953   1.085   1_554  S
C949        C950   1.408       .  A
C950        C951   1.508       .  S
C951        H955   1.111       .  S
C951        H956   1.111       .  S
C951        H957   1.108       .  S
C954        H958   1.110       .  S
C954        H959   1.110       .  S
C954        H960   1.111       .  S
C961        C962   1.404       .  A
C961        C966   1.405       .  A
C961        H968   1.084       .  S
C962        C963   1.413       .  A
C964        C965   1.403   1_545  A
C964        H969   1.084       .  S
C966        C967   1.505       .  S
C967        H971   1.109       .  S
C967        H972   1.110       .  S
C970        H975   1.109       .  S
C970        H976   1.111       .  S
C977        C982   1.411       .  A
C977        H984   1.073       .  S
C978        C979   1.426       .  A
C979        C980   1.407       .  A
C979        C986   1.511       .  S
C980        H985   1.085       .  S
C981        C982   1.408       .  A
C982        C983   1.507       .  S
C983        H987   1.110       .  S
C983        H989   1.109       .  S
C986        H990   1.103       .  S
C986        H992   1.110       .  S
C993       C2210   1.422       .  A
C993        C998   1.409       .  A
C993       H1000   1.082       .  S
C994       C2209   1.415       .  A
C994        C995   1.418       .  A
C995        C996   1.414       .  A
C995       C1002   1.505       .  S
C996        C997   1.413       .  A
C996       H1001   1.084       .  S
C997       C2214   1.409       .  A
C998       C2213   1.404       .  A
C998        C999   1.507   1_655  S
C999       H1003   1.110       .  S
C999       H1004   1.110   1_455  S
C999       H1005   1.111       .  S
C1002      H1006   1.110       .  S
C1002      H1007   1.106       .  S
C1002      H1008   1.111       .  S
C1009      C1010   1.406       .  A
C1009      C1014   1.416       .  A
C1009      H1016   1.084       .  S
C1010      C2227   1.427       .  A
C1011      C2226   1.414   1_455  A
C1011      C1012   1.409       .  A
C1011      C1018   1.508       .  S
C1012      C2229   1.410       .  A
C1012      H1017   1.084       .  S
C1013      C2228   1.399       .  A
C1013      C1014   1.429       .  A
C1014      C1015   1.509       .  S
C1015      H1019   1.111       .  S
C1015      H1020   1.104       .  S
C1015      H1021   1.110       .  S
C1018      H2238   1.109       .  S
C1018      H1023   1.111       .  S
C1018      H1024   1.111       .  S
H1022      C2234   1.111       .  S
C1025      C1026   1.408       .  A
C1025      C1030   1.407       .  A
C1025      H1032   1.083       .  S
C1026      C1027   1.417       .  A
C1027      C1028   1.419       .  A
C1027      C1034   1.506       .  S
C1028      C1029   1.410       .  A
C1028      H1033   1.084       .  S
C1029      C1030   1.416       .  A
C1030      C1031   1.508       .  S
C1031      H1035   1.109       .  S
C1031      H1036   1.106       .  S
C1031      H1037   1.108       .  S
C1034      H1038   1.109       .  S
C1034      H1039   1.110       .  S
C1034      H1040   1.111       .  S
C1041      C1042   1.406       .  A
C1041      C1046   1.401       .  A
C1041      H1048   1.080       .  S
C1042      C1043   1.430       .  A
C1043      C1044   1.412       .  A
C1043      C1050   1.508       .  S
C1044      C1045   1.402       .  A
C1044      H1049   1.084       .  S
C1045      C1046   1.427       .  A
C1046      C1047   1.514       .  S
C1047      H1051   1.111       .  S
C1047      H1052   1.107       .  S
C1047      H1053   1.109       .  S
C1050      H1054   1.111       .  S
C1050      H1055   1.105       .  S
C1050      H1056   1.110       .  S
C1057      C1058   1.401       .  A
C1057      C1062   1.413       .  A
C1057      H1064   1.075       .  S
C1058      C1059   1.428       .  A
C1059      C1060   1.413       .  A
C1059      C1066   1.509       .  S
C1060      C1061   1.404       .  A
C1060      H1065   1.084       .  S
C1061      C1062   1.427       .  A
C1062      C1063   1.510       .  S
C1063      H1067   1.111       .  S
C1063      H1068   1.111       .  S
C1063      H1069   1.108       .  S
C1066      H1070   1.107       .  S
C1066      H1071   1.110       .  S
C1066      H1072   1.111       .  S
C1073      C1074   1.414       .  A
C1073      C1078   1.411       .  A
C1073      H1080   1.084       .  S
C1074      C1075   1.417       .  A
C1075      C1076   1.414       .  A
C1075      C1082   1.506       .  S
C1076      C1077   1.414       .  A
C1076      H1081   1.084       .  S
C1077      C1078   1.414       .  A
C1078      C1079   1.502       .  S
C1079      H1083   1.111       .  S
C1079      H1084   1.107       .  S
C1079      H1085   1.110       .  S
C1082      H1086   1.110       .  S
C1082      H1087   1.110       .  S
C1082      H1088   1.111       .  S
C1089      C1090   1.398       .  A
C1089      C1094   1.394       .  A
C1089      H1096   1.085       .  S
C1090      C1091   1.414       .  A
C1091      C1092   1.394       .  A
C1091      C1098   1.506       .  S
C1092      C1093   1.397       .  A
C1092      H1097   1.084       .  S
C1093      C1094   1.415       .  A
C1094      C1095   1.509       .  S
C1095      H1099   1.111       .  S
C1095      H1100   1.107       .  S
C1095      H1101   1.110       .  S
C1098      H1102   1.108       .  S
C1098      H1103   1.109       .  S
C1098      H1104   1.111       .  S
C1105      C1106   1.400       .  A
C1105      C1110   1.398       .  A
C1105      H1112   1.084       .  S
C1106      C1107   1.416       .  A
C1107      C1108   1.399       .  A
C1107      C1114   1.508       .  S
C1108      C1109   1.397       .  A
C1108      H1113   1.083       .  S
C1109      C1110   1.412       .  A
C1110      C1111   1.506       .  S
C1111      H1115   1.108       .  S
C1111      H1116   1.111       .  S
C1111      H1117   1.110       .  S
C1114      H1118   1.108       .  S
C1114      H1119   1.111       .  S
C1114      H1120   1.110       .  S
C1121      C1122   1.405       .  A
C1121      C1126   1.398       .  A
C1121      H1128   1.085       .  S
C1122      C1123   1.410       .  A
C1123      C1124   1.397       .  A
C1123      C1130   1.508       .  S
C1124      C1125   1.403       .  A
C1124      H1129   1.085       .  S
C1125      C1126   1.412       .  A
C1126      C1127   1.509       .  S
C1127      H1131   1.111       .  S
C1127      H1132   1.108       .  S
C1127      H1133   1.111       .  S
C1130      H1134   1.110       .  S
C1130      H1135   1.109       .  S
C1130      H1136   1.111       .  S
C1137      C1138   1.402       .  A
C1137      C1142   1.396       .  A
C1137      H1144   1.084       .  S
C1138      C1139   1.408       .  A
C1139      C1140   1.398       .  A
C1139      C1146   1.506       .  S
C1140      C1141   1.402       .  A
C1140      H1145   1.084       .  S
C1141      C1142   1.406       .  A
C1142      C1143   1.507       .  S
C1143      H1147   1.111       .  S
C1143      H1148   1.111       .  S
C1143      H1149   1.110       .  S
C1146      H1150   1.110       .  S
C1146      H1151   1.110       .  S
C1146      H1152   1.111       .  S
C1153      C1154   1.405       .  A
C1153      C1158   1.419       .  A
C1153      H1160   1.084       .  S
C1154      C1155   1.425       .  A
C1155      C1156   1.408       .  A
C1155      C1162   1.513       .  S
C1156      C1157   1.407       .  A
C1156      H1161   1.082       .  S
C1157      C1158   1.433       .  A
C1158      C1159   1.508       .  S
C1159      H1163   1.111       .  S
C1159      H1164   1.110       .  S
C1159      H1165   1.106       .  S
C1162      H1166   1.109       .  S
C1162      H1167   1.111       .  S
C1162      H1168   1.111       .  S
C1169      C1170   1.406       .  A
C1169      C1174   1.411       .  A
C1169      H1176   1.084       .  S
C1170      C1171   1.420       .  A
C1171      C1172   1.419       .  A
C1171      C1178   1.506       .  S
C1172      C1173   1.407       .  A
C1172      H1177   1.084       .  S
C1173      C1174   1.422       .  A
C1174      C1175   1.511       .  S
C1175      H1179   1.111       .  S
C1175      H1180   1.109       .  S
C1175      H1181   1.110       .  S
C1178      H1182   1.110       .  S
C1178      H1183   1.107       .  S
C1178      H1184   1.111       .  S
C1185      C1186   1.417       .  A
C1185      C1190   1.410       .  A
C1185      H1192   1.083       .  S
C1186      C1187   1.419       .  A
C1187      C1188   1.416       .  A
C1187      C1194   1.506       .  S
C1188      C1189   1.412       .  A
C1188      H1193   1.084       .  S
C1189      C1190   1.411       .  A
C1190      C1191   1.507       .  S
C1191      H1195   1.111       .  S
C1191      H1196   1.109       .  S
C1191      H1197   1.107       .  S
C1194      H1198   1.111       .  S
C1194      H1199   1.110       .  S
C1194      H1200   1.111       .  S
C1201      C1202   1.406       .  A
C1201      C1206   1.421       .  A
C1201      H1208   1.084       .  S
C1202      C1203   1.419       .  A
C1203      C1204   1.408       .  A
C1203      C1210   1.508       .  S
C1204      C1205   1.404       .  A
C1204      H1209   1.084       .  S
C1205      C1206   1.421       .  A
C1206      C1207   1.501       .  S
C1207      H1211   1.111       .  S
C1207      H1212   1.107       .  S
C1207      H1213   1.109       .  S
C1210      H1214   1.111       .  S
C1210      H1215   1.108       .  S
C1210      H1216   1.111       .  S
O1217     Zr1253   2.510       .  S
O1217      C1228   1.306       .  A
O1218     Zr1252   2.496       .  S
O1218      C1229   1.304       .  A
O1219     Zr1225   2.428       .  S
O1219      C1230   1.289       .  A
O1220     Zr1225   2.412       .  S
O1220      C1231   1.285       .  A
O1221     Zr1255   2.417       .  S
O1221      C1231   1.286       .  A
O1222     Zr1254   2.409       .  S
O1222      C1230   1.285       .  A
O1223     Zr1225   2.398       .  S
O1223      C1229   1.282       .  A
O1224     Zr1225   2.425       .  S
O1224      C1228   1.289       .  A
Zr1225     O1226   2.338       .  S
Zr1225     O1227   2.330       .  S
Zr1225     O1235   2.335       .  S
Zr1225     O1233   2.332       .  S
O1226     Zr1252   2.347       .  S
O1226     Zr1255   2.321       .  S
O1227     Zr1253   2.367       .  S
O1227     Zr1254   2.347       .  S
C1228      C1810   1.496       .  S
C1229      C1669   1.501       .  S
C1230      C1698   1.458       .  S
C1231      C1717   1.451       .  S
H1232      O1233   0.966       .  S
O1233     Zr1252   2.357       .  S
O1233     Zr1254   2.334       .  S
H1234      O1235   0.967       .  S
O1235     Zr1253   2.357       .  S
O1235     Zr1255   2.331       .  S
O1236     Zr1252   2.491       .  S
O1236      C1259   1.302       .  A
O1237     Zr1253   2.500       .  S
O1237      C1260   1.305       .  A
O1238     Zr1254   2.429       .  S
O1238      C1261   1.292       .  A
O1239     Zr1255   2.402       .  S
O1239      C1262   1.283       .  A
O1240     Zr1255   2.393       .  S
O1240      C1263   1.281       .  A
O1241     Zr1254   2.428       .  S
O1241      C1264   1.291       .  A
O1242     Zr1256   2.416       .  S
O1242      C1265   1.285       .  A
O1243     Zr1256   2.412       .  S
O1243      C1266   1.286       .  A
O1244     Zr1254   2.428       .  S
O1244      C1265   1.289       .  A
O1245     Zr1255   2.406       .  S
O1245      C1266   1.285       .  A
O1246     Zr1252   2.486       .  S
O1246      C1261   1.301       .  A
O1247     Zr1253   2.503       .  S
O1247      C1264   1.305       .  A
O1248     Zr1253   2.525       .  S
O1248      C1263   1.309       .  A
O1249     Zr1252   2.504       .  S
O1249      C1262   1.305       .  A
O1250     Zr1256   2.427       .  S
O1250      C1259   1.291       .  A
O1251     Zr1256   2.415       .  S
O1251      C1260   1.289       .  A
Zr1252     O1258   2.358       .  S
Zr1252     O1270   2.356       .  S
Zr1253     O1257   2.360       .  S
Zr1253     O1268   2.380       .  S
Zr1254     O1258   2.324       .  S
Zr1254     O1268   2.336       .  S
Zr1255     O1257   2.329       .  S
Zr1255     O1270   2.328       .  S
Zr1256     O1257   2.335       .  S
Zr1256     O1258   2.325       .  S
Zr1256     O1270   2.338       .  S
Zr1256     O1268   2.341       .  S
C1259      C1682   1.507       .  S
C1260      C1794   1.513       .  S
C1261      C1634   1.499       .  S
C1262      C1653   1.502       .  S
C1263      C1762   1.510       .  S
C1264      C1781   1.500       .  S
C1265      C1746   1.460       .  S
C1266      C1730   1.454       .  S
H1267      O1268   0.965       .  S
H1269      O1270   0.964       .  S
N1271      H1303   1.038       .  S
N1271      C1884   1.349   1_545  A
N1271      C1275   1.344       .  A
N1272      C1280   1.347       .  A
N1273      H1304   1.036       .  S
N1273      C1886   1.345       .  A
N1273      C1277   1.348   1_565  A
N1274      C1282   1.345       .  A
C1275      C1283   1.387       .  A
C1275      C1291   1.404       .  A
C1276      N1879   1.347       .  A
C1276      C1292   1.402       .  A
C1276      C1284   1.386       .  A
C1277      C1285   1.387       .  A
C1277      C1294   1.406       .  A
C1278      N1881   1.347       .  A
C1278      C1293   1.407       .  A
C1278      C1286   1.387       .  A
C1279      C1291   1.405       .  A
C1279      C1287   1.386   1_655  A
C1280      C1294   1.408       .  A
C1280      C1288   1.388       .  A
C1281      C1289   1.386       .  A
C1281      C1292   1.409       .  A
C1282      C1290   1.386       .  A
C1282      C1293   1.403       .  A
C1283      C1892   1.377   1_545  A
C1283      H1295   1.083       .  S
C1284      C1891   1.376       .  A
C1284      H1296   1.083       .  S
C1285      C1894   1.373   1_545  A
C1285      H1297   1.082       .  S
C1286      C1893   1.374       .  A
C1286      H1298   1.083       .  S
C1287      H1299   1.082   1_455  S
C1288      H1300   1.082       .  S
C1289      H1301   1.082       .  S
C1290      H1302   1.082       .  S
C1291      C1701   1.468       .  S
C1292      C1749   1.475       .  S
C1293      C1733   1.469       .  S
C1294      C1714   1.469       .  S
O1305     Zr1949   2.503       .  S
O1305      C1316   1.306       .  A
O1306     Zr1340   2.510       .  S
O1306      C1317   1.307       .  A
O1307      C1318   1.286       .  A
O1308     Zr1313   2.429       .  S
O1308      C1319   1.289       .  A
O1309     Zr1343   2.400       .  S
O1309      C1319   1.283       .  A
O1310     Zr1342   2.406       .  S
O1310      C1318   1.285       .  A
O1311     Zr1313   2.422   1_554  S
O1311      C1317   1.287       .  A
O1312     Zr1313   2.408       .  S
O1312      C1316   1.284       .  A
Zr1313     O1314   2.337   1_556  S
Zr1313     O1323   2.335       .  S
O1314     Zr1340   2.366       .  S
O1314     Zr1343   2.341   1_554  S
O1315     Zr1342   2.325       .  S
C1316      C1618   1.511       .  S
C1317      C1477   1.516       .  S
C1318      C1506   1.454       .  S
C1319      C1522   1.453       .  S
H1320      O1321   0.967       .  S
O1321     Zr1342   2.341   1_554  S
H1322      O1323   0.963       .  S
O1323     Zr1949   2.355       .  S
O1323     Zr1343   2.336       .  S
O1324     Zr1948   2.508   1_545  S
O1324      C1347   1.305       .  A
O1325     Zr1341   2.522       .  S
O1325      C1348   1.308       .  A
O1326     Zr1342   2.422   1_554  S
O1326      C1349   1.289       .  A
O1327     Zr1343   2.422   1_554  S
O1327      C1350   1.289       .  A
O1328     Zr1951   2.432       .  S
O1328      C1351   1.290       .  A
O1329     Zr1950   2.428       .  S
O1329      C1352   1.291       .  A
O1330      C1353   1.292       .  A
O1331     Zr1344   2.403       .  S
O1331      C1354   1.283       .  A
O1332     Zr1950   2.402   1_545  S
O1332      C1353   1.282       .  A
O1333     Zr1951   2.420       .  S
O1333      C1354   1.288       .  A
O1334      C1349   1.302       .  A
O1335      C1352   1.303       .  A
O1336     Zr1341   2.491       .  S
O1336      C1351   1.303       .  A
O1337     Zr1340   2.501       .  S
O1337      C1350   1.304       .  A
O1338     Zr1344   2.412   1_554  S
O1338      C1347   1.288       .  A
O1339     Zr1344   2.398       .  S
O1339      C1348   1.285       .  A
Zr1340     O1932   2.515       .  S
Zr1340     O1966   2.370       .  S
Zr1341     O1913   2.502   1_545  S
Zr1341     O1931   2.361   1_545  S
Zr1341     O1345   2.355       .  S
Zr1342     O1937   2.427       .  S
Zr1342     O1940   2.413       .  S
Zr1342     O1954   2.334   1_556  S
Zr1342     O1964   2.338       .  S
Zr1343     O1936   2.422       .  S
Zr1343     O1941   2.421       .  S
Zr1343     O1953   2.333       .  S
Zr1343     O1966   2.332   1_556  S
Zr1344     O1345   2.329       .  S
Zr1344     O1358   2.335   1_556  S
O1345     Zr1951   2.334       .  S
O1346     Zr1950   2.340   1_544  S
C1347      C1490   1.519       .  S
C1348      C1602   1.515       .  S
C1349      C1442   1.488       .  S
C1350      C1458   1.495       .  S
C1351      C1570   1.488       .  S
C1352      C1589   1.500       .  S
C1353      C1554   1.460       .  S
C1354      C1541   1.456       .  S
H1355      O1356   0.965       .  S
O1356     Zr1950   2.332   1_545  S
H1357      O1358   0.967       .  S
O1358     Zr1948   2.363   1_545  S
O1358     Zr1951   2.343   1_554  S
N1359      H1391   1.041       .  S
N1359      C1364   1.350       .  A
N1359      C1363   1.348       .  A
N1360      C1367   1.344       .  A
N1360      C1368   1.347       .  A
N1361      H1392   1.041       .  S
N1361      C1366   1.347       .  A
N1361      C1365   1.348       .  A
N1362      C1369   1.344       .  A
N1362      C1370   1.343       .  A
C1363      C1371   1.388       .  A
C1363      C1379   1.406       .  A
C1364      C1380   1.407       .  A
C1364      C1372   1.387       .  A
C1365      C1373   1.388       .  A
C1365      C1382   1.404       .  A
C1366      C1381   1.403       .  A
C1366      C1374   1.388       .  A
C1367      C1379   1.405       .  A
C1367      C1375   1.386       .  A
C1368      C1382   1.401       .  A
C1368      C1376   1.384       .  A
C1369      C1377   1.385       .  A
C1369      C1380   1.400       .  A
C1370      C1378   1.387       .  A
C1370      C1381   1.402       .  A
C1371      C1372   1.370       .  A
C1371      H1383   1.082       .  S
C1372      H1384   1.082       .  S
C1373      C1374   1.369       .  A
C1373      H1385   1.083       .  S
C1374      H1386   1.082       .  S
C1375      C1376   1.372       .  A
C1375      H1387   1.080       .  S
C1376      H1388   1.083       .  S
C1377      C1378   1.374       .  A
C1377      H1389   1.082       .  S
C1378      H1390   1.083       .  S
C1379      C1509   1.470       .  S
C1380      C1557   1.471       .  S
C1381      C1538   1.465       .  S
C1382      C1525   1.469       .  S
C1393      C1394   1.525       .  S
C1393      C1397   1.537       .  S
C1393      C1765   1.556       .  S
C1394      H1401   1.087       .  S
C1395      C1396   1.561   1_455  S
C1395      C1493   1.501   1_455  S
C1396      C1400   1.541       .  S
C1396      C1398   1.560   1_655  S
C1396      H1402   1.109       .  S
C1397      H1403   1.084       .  S
C1398      C1474   1.515   1_455  S
C1399      H1404   1.084       .  S
C1399      C1400   1.375   1_455  D
C1400      C1778   1.503       .  S
C1405      C1406   1.534       .  S
C1405      C1411   1.546       .  S
C1405      C2017   1.548       .  S
C1405      C1445   1.560       .  S
C1406      H1413   1.086       .  S
C1406      C1407   1.363       .  D
C1407      C1408   1.556       .  S
C1407      C1797   1.500       .  S
C1408      C1412   1.545       .  S
C1408      C2018   1.557       .  S
C1408      H1414   1.109       .  S
C1409      C2013   1.546       .  S
C1409      H1415   1.079       .  S
C1409      C1410   1.368       .  D
C1410      C2016   1.560   1_545  S
C1410      C1813   1.514       .  S
C1411      H1416   1.085       .  S
C1411      C1412   1.372       .  D
C1412      C1461   1.501       .  S
C1417      C1418   1.538       .  S
C1417      C1421   1.521       .  S
C1417      C1650   1.550       .  S
C1418      H1425   1.084       .  S
C1419      C1420   1.561   1_455  S
C1419      C1621   1.506       .  S
C1420      C1424   1.539       .  S
C1420      C1422   1.558   1_655  S
C1420      H1426   1.110       .  S
C1421      H1427   1.087       .  S
C1422      C1605   1.495   1_455  S
C1423      H1428   1.082       .  S
C1423      C1424   1.376   1_455  D
C1424      C1637   1.505       .  S
C1429      C2038   1.545       .  S
C1429      C1435   1.556       .  S
C1429      C1433   1.529       .  S
C1429      C1586   1.560       .  S
C1430      C2037   1.546   1_545  S
C1430      H1437   1.081       .  S
C1430      C1431   1.369       .  D
C1431      C2040   1.550   1_545  S
C1431      C1666   1.504       .  S
C1432      C2039   1.560       .  S
C1432      C1436   1.538       .  S
C1432      C1434   1.565       .  S
C1432      H1438   1.106       .  S
C1433      H1439   1.087       .  S
C1433      C1434   1.366       .  D
C1434      C1685   1.519       .  S
C1435      H1440   1.086       .  S
C1435      C1436   1.374       .  D
C1436      C1573   1.499       .  S
C1441      C1442   1.401       .  A
C1441      C1446   1.410       .  A
C1441      H1448   1.083       .  S
C1442      C2051   1.409       .  A
C1443      C2050   1.409   1_545  A
C1443      C1444   1.407       .  A
C1443      C1450   1.510       .  S
C1444      C2053   1.419   1_545  A
C1444      H1449   1.073       .  S
C1445      C2052   1.419       .  A
C1445      C1446   1.432       .  A
C1446      C1447   1.515       .  S
C1447      H1451   1.110       .  S
C1447      H1452   1.105       .  S
C1447      H1453   1.106       .  S
C1450      H1454   1.106       .  S
C1450      H1455   1.111       .  S
C1450      H1456   1.110       .  S
C1457      C1458   1.406       .  A
C1457      C1462   1.417       .  A
C1457      H1464   1.084       .  S
C1458      C2067   1.418       .  A
C1459      C2066   1.418       .  A
C1459      C1460   1.408       .  A
C1459      C1466   1.506       .  S
C1460      C2069   1.403       .  A
C1460      H1465   1.084       .  S
C1461      C2068   1.401       .  A
C1461      C1462   1.418       .  A
C1462      C1463   1.505       .  S
C1463      H1467   1.111       .  S
C1463      H1468   1.110       .  S
C1463      H1469   1.108       .  S
C1466      H1470   1.108       .  S
C1466      H1471   1.111       .  S
C1466      H1472   1.111       .  S
C1473      C1478   1.414       .  A
C1473      H1480   1.081       .  S
C1474      C1475   1.426   1_655  A
C1475      C1476   1.415   1_455  A
C1475      C1482   1.508       .  S
C1476      C1477   1.407       .  A
C1476      H1481   1.084   1_655  S
C1478      C1479   1.511       .  S
C1479      H1483   1.111       .  S
C1479      H1484   1.110       .  S
C1479      H1485   1.110       .  S
C1482      H1486   1.110       .  S
C1482      H1487   1.107       .  S
C1482      H1488   1.111   1_455  S
C1489      C1490   1.420       .  A
C1489      C1494   1.407       .  A
C1489      H1496   1.083       .  S
C1491      C1492   1.418       .  A
C1491      C1498   1.506       .  S
C1492      H1497   1.083       .  S
C1493      C1494   1.408       .  A
C1494      C1495   1.506   1_655  S
C1495      H1499   1.111       .  S
C1495      H1500   1.105       .  S
C1495      H1501   1.110   1_455  S
C1498      H1502   1.110       .  S
C1498      H1503   1.110       .  S
C1498      H1504   1.111       .  S
C1505      C1506   1.403       .  A
C1505      C1510   1.397       .  A
C1505      H1512   1.085       .  S
C1506      C1507   1.408       .  A
C1507      C1508   1.393       .  A
C1507      C1514   1.507   1_556  S
C1508      C1509   1.401       .  A
C1508      H1513   1.085   1_556  S
C1509      C1510   1.408       .  A
C1510      C1511   1.508       .  S
C1511      H1515   1.111       .  S
C1511      H1516   1.109       .  S
C1511      H1517   1.110       .  S
C1514      H1518   1.110       .  S
C1514      H1519   1.109       .  S
C1514      H1520   1.110       .  S
C1521      C1522   1.400       .  A
C1521      C1526   1.393       .  A
C1521      H1528   1.085       .  S
C1522      C1523   1.408   1_556  A
C1523      C1524   1.398   1_554  A
C1523      C1530   1.508       .  S
C1524      C1525   1.403       .  A
C1524      H1529   1.084   1_556  S
C1525      C1526   1.410       .  A
C1526      C1527   1.508       .  S
C1527      H1531   1.110       .  S
C1527      H1532   1.110       .  S
C1527      H1533   1.109       .  S
C1530      H1534   1.110       .  S
C1530      H1535   1.111       .  S
C1530      H1536   1.111       .  S
C1537      C1538   1.397       .  A
C1537      C1542   1.395       .  A
C1537      H1544   1.084       .  S
C1538      C1539   1.410       .  A
C1539      C1540   1.393   1_556  A
C1539      C1546   1.508   1_556  S
C1540      C1541   1.397   1_554  A
C1540      H1545   1.080       .  S
C1541      C1542   1.414       .  A
C1542      C1543   1.506       .  S
C1543      H1547   1.111       .  S
C1543      H1548   1.109       .  S
C1543      H1549   1.110       .  S
C1546      H1550   1.109       .  S
C1546      H1551   1.111       .  S
C1546      H1552   1.111       .  S
C1553      C1554   1.398   1_554  A
C1553      C1558   1.400   1_554  A
C1553      H1560   1.085       .  S
C1554      C1555   1.411       .  A
C1555      C1556   1.394       .  A
C1555      C1562   1.502       .  S
C1556      C1557   1.396       .  A
C1556      H1561   1.084       .  S
C1557      C1558   1.415       .  A
C1558      C1559   1.507   1_556  S
C1559      H1563   1.111       .  S
C1559      H1564   1.110       .  S
C1559      H1565   1.108       .  S
C1562      H1566   1.103       .  S
C1562      H1567   1.109       .  S
C1562      H1568   1.111       .  S
C1569      C1570   1.403   1_565  A
C1569      C1574   1.409       .  A
C1569      H1576   1.084       .  S
C1570      C1571   1.417       .  A
C1571      C2180   1.413       .  A
C1571      C2186   1.506       .  S
C1572      C2179   1.411       .  A
C1572      C1573   1.403       .  A
C1572      H1577   1.084       .  S
C1573      C2182   1.415       .  A
C1574      C2181   1.414   1_565  A
C1574      C1575   1.503       .  S
C1575      H1579   1.111       .  S
C1575      H1580   1.108       .  S
C1575      H2189   1.110       .  S
C1578      C2179   1.506       .  S
C1578      H2190   1.110       .  S
C1578      H1583   1.109       .  S
C1578      H1584   1.111       .  S
H1581      C2183   1.111       .  S
H1582      C2186   1.110       .  S
C1585      C2194   1.422   1_545  A
C1585      C1590   1.416       .  A
C1585      H1592   1.076       .  S
C1586      C2193   1.420       .  A
C1586      C1587   1.428       .  A
C1587      C1588   1.411       .  A
C1587      C1594   1.509       .  S
C1588      C2197   1.406       .  A
C1588      H1593   1.085       .  S
C1589      C2196   1.405       .  A
C1589      C1590   1.412   1_565  A
C1590      C1591   1.508       .  S
C1591      H1595   1.111       .  S
C1591      H2204   1.107       .  S
C1591      H1597   1.110       .  S
C1594      H1598   1.103       .  S
C1594      H2207   1.111       .  S
C1594      H1600   1.110       .  S
H1596      C2199   1.109       .  S
H1599      C2202   1.110       .  S
C1601      C1606   1.402       .  A
C1601      H1608   1.083       .  S
C1602      C1603   1.418       .  A
C1603      C1604   1.420       .  A
C1603      C1610   1.504       .  S
C1604      C1605   1.411       .  A
C1604      H1609   1.084       .  S
C1606      C1607   1.509       .  S
C1607      H1611   1.111       .  S
C1607      H1612   1.108       .  S
C1607      H1613   1.111       .  S
C1610      H1614   1.110       .  S
C1610      H1615   1.110       .  S
C1610      H1616   1.111       .  S
C1617      C1618   1.406   1_455  A
C1617      C1622   1.413       .  A
C1617      H1624   1.084       .  S
C1619      C1620   1.406       .  A
C1619      C1626   1.512       .  S
C1620      H1625   1.082       .  S
C1621      C1622   1.427       .  A
C1622      C1623   1.509       .  S
C1623      H1627   1.111       .  S
C1623      H1628   1.103       .  S
C1623      H1629   1.111       .  S
C1626      H1631   1.110       .  S
C1626      H1632   1.111       .  S
C1633      C1634   1.406       .  A
C1633      C1638   1.404       .  A
C1633      H1640   1.083       .  S
C1634      C1635   1.417       .  A
C1635      C1636   1.418       .  A
C1635      C1642   1.507       .  S
C1636      C1637   1.411       .  A
C1636      H1641   1.084       .  S
C1637      C1638   1.418       .  A
C1638      C1639   1.508       .  S
C1639      H1643   1.110       .  S
C1639      H1644   1.105       .  S
C1639      H1645   1.107       .  S
C1642      H1646   1.108       .  S
C1642      H1647   1.110       .  S
C1642      H1648   1.111       .  S
C1649      C1650   1.405       .  A
C1649      C1654   1.403       .  A
C1649      H1656   1.081       .  S
C1650      C1651   1.432       .  A
C1651      C1652   1.414       .  A
C1651      C1658   1.509       .  S
C1652      C1653   1.404       .  A
C1652      H1657   1.084       .  S
C1653      C1654   1.425       .  A
C1654      C1655   1.512       .  S
C1655      H1659   1.111       .  S
C1655      H1660   1.107       .  S
C1655      H1661   1.109       .  S
C1658      H1662   1.111       .  S
C1658      H1663   1.106       .  S
C1658      H1664   1.110       .  S
C1665      C1666   1.399       .  A
C1665      C1670   1.408       .  A
C1665      H1672   1.081       .  S
C1666      C1667   1.424       .  A
C1667      C1668   1.406       .  A
C1667      C1674   1.508       .  S
C1668      C1669   1.402       .  A
C1668      H1673   1.084       .  S
C1669      C1670   1.430       .  A
C1670      C1671   1.512       .  S
C1671      H1675   1.111       .  S
C1671      H1676   1.111       .  S
C1671      H1677   1.109       .  S
C1674      H1678   1.107       .  S
C1674      H1679   1.110       .  S
C1674      H1680   1.111       .  S
C1681      C1682   1.410       .  A
C1681      C1686   1.408       .  A
C1681      H1688   1.084       .  S
C1682      C1683   1.416       .  A
C1683      C1684   1.415       .  A
C1683      C1690   1.507       .  S
C1684      C1685   1.417       .  A
C1684      H1689   1.084       .  S
C1685      C1686   1.415       .  A
C1686      C1687   1.499       .  S
C1687      H1691   1.111       .  S
C1687      H1692   1.106       .  S
C1687      H1693   1.109       .  S
C1690      H1694   1.110       .  S
C1690      H1695   1.111       .  S
C1690      H1696   1.111       .  S
C1697      C1698   1.396       .  A
C1697      C1702   1.395       .  A
C1697      H1704   1.085       .  S
C1698      C1699   1.414       .  A
C1699      C1700   1.394       .  A
C1699      C1706   1.502       .  S
C1700      C1701   1.394       .  A
C1700      H1705   1.085       .  S
C1701      C1702   1.416       .  A
C1702      C1703   1.508       .  S
C1703      H1707   1.110       .  S
C1703      H1708   1.107       .  S
C1703      H1709   1.110       .  S
C1706      H1710   1.108       .  S
C1706      H1711   1.109       .  S
C1706      H1712   1.111       .  S
C1713      C1714   1.399       .  A
C1713      C1718   1.397       .  A
C1713      H1720   1.084       .  S
C1714      C1715   1.414       .  A
C1715      C1716   1.392       .  A
C1715      C1722   1.508       .  S
C1716      C1717   1.394       .  A
C1716      H1721   1.082       .  S
C1717      C1718   1.410       .  A
C1718      C1719   1.505       .  S
C1719      H1723   1.107       .  S
C1719      H1724   1.111       .  S
C1719      H1725   1.110       .  S
C1722      H1726   1.108       .  S
C1722      H1727   1.111       .  S
C1722      H1728   1.110       .  S
C1729      C1730   1.402       .  A
C1729      C1734   1.393       .  A
C1729      H1736   1.085       .  S
C1730      C1731   1.409       .  A
C1731      C1732   1.395       .  A
C1731      C1738   1.509       .  S
C1732      C1733   1.403       .  A
C1732      H1737   1.085       .  S
C1733      C1734   1.411       .  A
C1734      C1735   1.509       .  S
C1735      H1739   1.111       .  S
C1735      H1740   1.107       .  S
C1735      H1741   1.111       .  S
C1738      H1742   1.110       .  S
C1738      H1743   1.109       .  S
C1738      H1744   1.111       .  S
C1745      C1746   1.402       .  A
C1745      C1750   1.397       .  A
C1745      H1752   1.084       .  S
C1746      C1747   1.407       .  A
C1747      C1748   1.402       .  A
C1747      C1754   1.506       .  S
C1748      C1749   1.405       .  A
C1748      H1753   1.084       .  S
C1749      C1750   1.406       .  A
C1750      C1751   1.506       .  S
C1751      H1755   1.111       .  S
C1751      H1756   1.110       .  S
C1751      H1757   1.109       .  S
C1754      H1758   1.110       .  S
C1754      H1759   1.110       .  S
C1754      H1760   1.111       .  S
C1761      C1762   1.402       .  A
C1761      C1766   1.416       .  A
C1761      H1768   1.084       .  S
C1762      C1763   1.429       .  A
C1763      C1764   1.409       .  A
C1763      C1770   1.514       .  S
C1764      C1765   1.406       .  A
C1764      H1769   1.081       .  S
C1765      C1766   1.434       .  A
C1766      C1767   1.508       .  S
C1767      H1771   1.111       .  S
C1767      H1772   1.110       .  S
C1767      H1773   1.105       .  S
C1770      H1774   1.109       .  S
C1770      H1775   1.111       .  S
C1770      H1776   1.111       .  S
C1777      C1778   1.403       .  A
C1777      C1782   1.408       .  A
C1777      H1784   1.084       .  S
C1778      C1779   1.418       .  A
C1779      C1780   1.418       .  A
C1779      C1786   1.506       .  S
C1780      C1781   1.408       .  A
C1780      H1785   1.084       .  S
C1781      C1782   1.421       .  A
C1782      C1783   1.510       .  S
C1783      H1787   1.111       .  S
C1783      H1788   1.109       .  S
C1783      H1789   1.110       .  S
C1786      H1790   1.110       .  S
C1786      H1791   1.108       .  S
C1786      H1792   1.111       .  S
C1793      C1794   1.419       .  A
C1793      C1798   1.407       .  A
C1793      H1800   1.083       .  S
C1794      C1795   1.420       .  A
C1795      C1796   1.414       .  A
C1795      C1802   1.507       .  S
C1796      C1797   1.411       .  A
C1796      H1801   1.084       .  S
C1797      C1798   1.407       .  A
C1798      C1799   1.507       .  S
C1799      H1803   1.111       .  S
C1799      H1804   1.110       .  S
C1799      H1805   1.108       .  S
C1802      H1806   1.111       .  S
C1802      H1807   1.110       .  S
C1802      H1808   1.111       .  S
C1809      C1810   1.405       .  A
C1809      C1814   1.419       .  A
C1809      H1816   1.084       .  S
C1810      C1811   1.415       .  A
C1811      C1812   1.408       .  A
C1811      C1818   1.506       .  S
C1812      C1813   1.409       .  A
C1812      H1817   1.084       .  S
C1813      C1814   1.422       .  A
C1814      C1815   1.502       .  S
C1815      H1819   1.111       .  S
C1815      H1820   1.106       .  S
C1815      H1821   1.107       .  S
C1818      H1822   1.111       .  S
C1818      H1823   1.108       .  S
C1818      H1824   1.111       .  S
O1825     Zr1861   2.519       .  S
O1825      C1836   1.308       .  A
O1826     Zr1860   2.507       .  S
O1826      C1837   1.306       .  A
O1827     Zr1833   2.413       .  S
O1827      C1838   1.287       .  A
O1828     Zr1833   2.403       .  S
O1828      C1839   1.283       .  A
O1829     Zr1863   2.410       .  S
O1829      C1839   1.285       .  A
O1830     Zr1862   2.423       .  S
O1830      C1838   1.288       .  A
O1831     Zr1833   2.413       .  S
O1831      C1837   1.285       .  A
O1832     Zr1833   2.432       .  S
O1832      C1836   1.291       .  A
Zr1833     O1834   2.334       .  S
Zr1833     O1835   2.334       .  S
Zr1833     O1843   2.334       .  S
Zr1833     O1841   2.332       .  S
O1834     Zr1860   2.352       .  S
O1834     Zr1863   2.322       .  S
O1835     Zr1861   2.371       .  S
O1835     Zr1862   2.345       .  S
C1836      C2418   1.506       .  S
C1837      C2277   1.515       .  S
C1838      C2306   1.462       .  S
C1839      C2325   1.444       .  S
H1840      O1841   0.965       .  S
O1841     Zr1860   2.360       .  S
O1841     Zr1862   2.338       .  S
H1842      O1843   0.966       .  S
O1843     Zr1861   2.360       .  S
O1843     Zr1863   2.328       .  S
O1844     Zr1860   2.502       .  S
O1844      C1867   1.304       .  A
O1845     Zr1861   2.512       .  S
O1845      C1868   1.307       .  A
O1846     Zr1862   2.417       .  S
O1846      C1869   1.290       .  A
O1847     Zr1863   2.404       .  S
O1847      C1870   1.283       .  A
O1848     Zr1863   2.403       .  S
O1848      C1871   1.283       .  A
O1849     Zr1862   2.425       .  S
O1849      C1872   1.290       .  A
O1850     Zr1864   2.409       .  S
O1850      C1873   1.284       .  A
O1851     Zr1864   2.413       .  S
O1851      C1874   1.286       .  A
O1852     Zr1862   2.438       .  S
O1852      C1873   1.291       .  A
O1853     Zr1863   2.396       .  S
O1853      C1874   1.283       .  A
O1854     Zr1860   2.489       .  S
O1854      C1869   1.302       .  A
O1855     Zr1861   2.500       .  S
O1855      C1872   1.305       .  A
O1856     Zr1861   2.519       .  S
O1856      C1871   1.308       .  A
O1857     Zr1860   2.514       .  S
O1857      C1870   1.306       .  A
O1858     Zr1864   2.423       .  S
O1858      C1867   1.290       .  A
O1859     Zr1864   2.408       .  S
O1859      C1868   1.288       .  A
Zr1860     O1866   2.359       .  S
Zr1860     O1878   2.359       .  S
Zr1861     O1865   2.362       .  S
Zr1861     O1876   2.377       .  S
Zr1862     O1866   2.326       .  S
Zr1862     O1876   2.335       .  S
Zr1863     O1865   2.329       .  S
Zr1863     O1878   2.332       .  S
Zr1864     O1865   2.333       .  S
Zr1864     O1866   2.324       .  S
Zr1864     O1878   2.335       .  S
Zr1864     O1876   2.340       .  S
C1867      C2290   1.520       .  S
C1868      C2402   1.515       .  S
C1869      C2242   1.497       .  S
C1870      C2261   1.511       .  S
C1871      C2370   1.513       .  S
C1872      C2389   1.496       .  S
C1873      C2354   1.465       .  S
C1874      C2338   1.448       .  S
H1875      O1876   0.964       .  S
H1877      O1878   0.964       .  S
N1879      H1911   1.038       .  S
N1879      C1883   1.346       .  A
N1880      C1888   1.345       .  A
N1881      H1912   1.037       .  S
N1881      C1885   1.347       .  A
N1882      C1890   1.345       .  A
C1883      C1891   1.387       .  A
C1883      C1899   1.405       .  A
C1884      C1900   1.405       .  A
C1884      C1892   1.386       .  A
C1885      C1893   1.388       .  A
C1885      C1902   1.406       .  A
C1886      C1901   1.407       .  A
C1886      C1894   1.388       .  A
C1887      C1899   1.406       .  A
C1887      C1895   1.386   1_655  A
C1888      C1902   1.408       .  A
C1888      C1896   1.389       .  A
C1889      C1897   1.386       .  A
C1889      C1900   1.407       .  A
C1890      C1898   1.386       .  A
C1890      C1901   1.404       .  A
C1891      H1903   1.083       .  S
C1892      H1904   1.082       .  S
C1893      H1905   1.082       .  S
C1894      H1906   1.083       .  S
C1895      H1907   1.082   1_455  S
C1896      H1908   1.082       .  S
C1897      H1909   1.082       .  S
C1898      H1910   1.082       .  S
C1899      C2309   1.472       .  S
C1900      C2357   1.477       .  S
C1901      C2341   1.465       .  S
C1902      C2322   1.466       .  S
O1913      C1924   1.304       .  A
O1914     Zr1948   2.504       .  S
O1914      C1925   1.306       .  A
O1915      C1926   1.289       .  A
O1916     Zr1921   2.432       .  S
O1916      C1927   1.290       .  A
O1917     Zr1951   2.421   1_565  S
O1917      C1927   1.287       .  A
O1918     Zr1950   2.403       .  S
O1918      C1926   1.283       .  A
O1919     Zr1921   2.433   1_554  S
O1919      C1925   1.290       .  A
O1920     Zr1921   2.432       .  S
O1920      C1924   1.291       .  A
Zr1921     O1922   2.339   1_556  S
Zr1921     O1931   2.341       .  S
O1922     Zr1948   2.372       .  S
O1922     Zr1951   2.340   1_564  S
O1923     Zr1950   2.331       .  S
C1924      C2226   1.495       .  S
C1925      C2085   1.517       .  S
C1926      C2114   1.463       .  S
C1927      C2130   1.464       .  S
H1928      O1929   0.967       .  S
O1929     Zr1950   2.332   1_554  S
H1930      O1931   0.963       .  S
O1931     Zr1951   2.346   1_565  S
O1932      C1955   1.307       .  A
O1933     Zr1949   2.515       .  S
O1933      C1956   1.307       .  A
O1934     Zr1950   2.423   1_554  S
O1934      C1957   1.289       .  A
O1935     Zr1951   2.436   1_554  S
O1935      C1958   1.292       .  A
O1936      C1959   1.288       .  A
O1937      C1960   1.290       .  A
O1938      C1961   1.289       .  A
O1939     Zr1952   2.417       .  S
O1939      C1962   1.286       .  A
O1940      C1961   1.285       .  A
O1941      C1962   1.287       .  A
O1942      C1957   1.301       .  A
O1943      C1960   1.305       .  A
O1944     Zr1949   2.506       .  S
O1944      C1959   1.305       .  A
O1945     Zr1948   2.498   1_545  S
O1945      C1958   1.304       .  A
O1946     Zr1952   2.415   1_554  S
O1946      C1955   1.289       .  A
O1947     Zr1952   2.420       .  S
O1947      C1956   1.290       .  A
Zr1949     O1953   2.354       .  S
Zr1952     O1953   2.329       .  S
Zr1952     O1966   2.340   1_556  S
C1955      C2098   1.518       .  S
C1956      C2210   1.524       .  S
C1957      C2050   1.486       .  S
C1958      C2066   1.498       .  S
C1959      C2178   1.493       .  S
C1960      C2197   1.503       .  S
C1961      C2162   1.459       .  S
C1962      C2149   1.463       .  S
H1963      O1964   0.964       .  S
H1965      O1966   0.966       .  S
N1967      H1999   1.042       .  S
N1967      C1972   1.348       .  A
N1967      C1971   1.348       .  A
N1968      C1975   1.345       .  A
N1968      C1976   1.345       .  A
N1969      H2000   1.042       .  S
N1969      C1974   1.351       .  A
N1969      C1973   1.351       .  A
N1970      C1977   1.344       .  A
N1970      C1978   1.343       .  A
C1971      C1979   1.388       .  A
C1971      C1987   1.406       .  A
C1972      C1988   1.405       .  A
C1972      C1980   1.386       .  A
C1973      C1981   1.388       .  A
C1973      C1990   1.410       .  A
C1974      C1989   1.408       .  A
C1974      C1982   1.386       .  A
C1975      C1987   1.404       .  A
C1975      C1983   1.385       .  A
C1976      C1990   1.403       .  A
C1976      C1984   1.386       .  A
C1977      C1985   1.386       .  A
C1977      C1988   1.401       .  A
C1978      C1986   1.388       .  A
C1978      C1989   1.401       .  A
C1979      C1980   1.371       .  A
C1979      H1991   1.082       .  S
C1980      H1992   1.082       .  S
C1981      C1982   1.372       .  A
C1981      H1993   1.082       .  S
C1982      H1994   1.082       .  S
C1983      C1984   1.374       .  A
C1983      H1995   1.079       .  S
C1984      H1996   1.083       .  S
C1985      C1986   1.375       .  A
C1985      H1997   1.082       .  S
C1986      H1998   1.083       .  S
C1987      C2117   1.473       .  S
C1988      C2165   1.469       .  S
C1989      C2146   1.473       .  S
C1990      C2133   1.476       .  S
C2001      C2002   1.528       .  S
C2001      C2005   1.534       .  S
C2001      C2373   1.556       .  S
C2002      H2009   1.087       .  S
C2003      C2004   1.563   1_455  S
C2003      C2101   1.510   1_455  S
C2004      C2008   1.538       .  S
C2004      C2006   1.565   1_655  S
C2004      H2010   1.108       .  S
C2005      H2011   1.086       .  S
C2006      C2082   1.522   1_455  S
C2007      H2012   1.085       .  S
C2007      C2008   1.376   1_455  D
C2008      C2386   1.502       .  S
C2013      C2014   1.530   1_545  S
C2013      C2019   1.547       .  S
C2013      C2053   1.558   1_545  S
C2014      H2021   1.086       .  S
C2014      C2015   1.360       .  D
C2015      C2016   1.555       .  S
C2015      C2405   1.499       .  S
C2016      C2020   1.547       .  S
C2016      H2022   1.106       .  S
C2017      H2023   1.079       .  S
C2017      C2018   1.365       .  D
C2018      C2421   1.509       .  S
C2019      H2024   1.085       .  S
C2019      C2020   1.373   1_545  D
C2020      C2069   1.504   1_565  S
C2025      C2026   1.539       .  S
C2025      C2029   1.524       .  S
C2025      C2258   1.558       .  S
C2026      H2033   1.085       .  S
C2027      C2028   1.560   1_455  S
C2027      C2229   1.517       .  S
C2028      C2032   1.547       .  S
C2028      C2030   1.560   1_655  S
C2028      H2034   1.106       .  S
C2029      H2035   1.087       .  S
C2030      C2213   1.500   1_455  S
C2031      H2036   1.079       .  S
C2031      C2032   1.371   1_455  D
C2032      C2245   1.502       .  S
C2037      C2043   1.557   1_565  S
C2037      C2041   1.533       .  S
C2037      C2194   1.558       .  S
C2038      H2045   1.082       .  S
C2038      C2039   1.368       .  D
C2039      C2274   1.513       .  S
C2040      C2044   1.535       .  S
C2040      C2042   1.558       .  S
C2040      H2046   1.110       .  S
C2041      H2047   1.087       .  S
C2041      C2042   1.361       .  D
C2042      C2293   1.503       .  S
C2043      H2048   1.086       .  S
C2043      C2044   1.374   1_545  D
C2044      C2181   1.496   1_565  S
C2049      C2050   1.402       .  A
C2049      C2054   1.409       .  A
C2049      H2056   1.082       .  S
C2051      C2052   1.408       .  A
C2051      C2058   1.508       .  S
C2052      H2057   1.073       .  S
C2053      C2054   1.431       .  A
C2054      C2055   1.515       .  S
C2055      H2059   1.110       .  S
C2055      H2060   1.105       .  S
C2055      H2061   1.105       .  S
C2058      H2062   1.107       .  S
C2058      H2063   1.111       .  S
C2058      H2064   1.110       .  S
C2065      C2066   1.407   1_565  A
C2065      C2070   1.418       .  A
C2065      H2072   1.084       .  S
C2067      C2068   1.406       .  A
C2067      C2074   1.506       .  S
C2068      H2073   1.083       .  S
C2069      C2070   1.418   1_545  A
C2070      C2071   1.505       .  S
C2071      H2075   1.111       .  S
C2071      H2076   1.110       .  S
C2071      H2077   1.108       .  S
C2074      H2078   1.108       .  S
C2074      H2079   1.110       .  S
C2074      H2080   1.111       .  S
C2081      C2086   1.406       .  A
C2081      H2088   1.084       .  S
C2082      C2083   1.427   1_655  A
C2083      C2084   1.416   1_455  A
C2083      C2090   1.508       .  S
C2084      C2085   1.407       .  A
C2084      H2089   1.084   1_655  S
C2086      C2087   1.509       .  S
C2087      H2091   1.111       .  S
C2087      H2092   1.111       .  S
C2087      H2093   1.108       .  S
C2090      H2094   1.110       .  S
C2090      H2095   1.107       .  S
C2090      H2096   1.111   1_455  S
C2097      C2098   1.417       .  A
C2097      C2102   1.408       .  A
C2097      H2104   1.083       .  S
C2099      C2100   1.418       .  A
C2099      C2106   1.506       .  S
C2100      H2105   1.084       .  S
C2101      C2102   1.408       .  A
C2102      C2103   1.500       .  S
C2103      H2107   1.111       .  S
C2103      H2108   1.110       .  S
C2103      H2109   1.107       .  S
C2106      H2110   1.107       .  S
C2106      H2111   1.110       .  S
C2106      H2112   1.111       .  S
C2113      C2114   1.403       .  A
C2113      C2118   1.397       .  A
C2113      H2120   1.085       .  S
C2114      C2115   1.413       .  A
C2115      C2116   1.397       .  A
C2115      C2122   1.506   1_556  S
C2116      C2117   1.401       .  A
C2116      H2121   1.085   1_556  S
C2117      C2118   1.408       .  A
C2118      C2119   1.507       .  S
C2119      H2123   1.111       .  S
C2119      H2124   1.109       .  S
C2119      H2125   1.110       .  S
C2122      H2126   1.109       .  S
C2122      H2127   1.109       .  S
C2122      H2128   1.111       .  S
C2129      C2130   1.403       .  A
C2129      C2134   1.395       .  A
C2129      H2136   1.085       .  S
C2130      C2131   1.410       .  A
C2131      C2132   1.401       .  A
C2131      C2138   1.507   1_556  S
C2132      C2133   1.405       .  A
C2132      H2137   1.084       .  S
C2133      C2134   1.409       .  A
C2134      C2135   1.507       .  S
C2135      H2139   1.110       .  S
C2135      H2140   1.111       .  S
C2135      H2141   1.109       .  S
C2138      H2142   1.110       .  S
C2138      H2143   1.110       .  S
C2138      H2144   1.111       .  S
C2145      C2146   1.397       .  A
C2145      C2150   1.396       .  A
C2145      H2152   1.084       .  S
C2146      C2147   1.413       .  A
C2147      C2148   1.397   1_556  A
C2147      C2154   1.509   1_556  S
C2148      C2149   1.398   1_554  A
C2148      H2153   1.080       .  S
C2149      C2150   1.413       .  A
C2150      C2151   1.504       .  S
C2151      H2155   1.111       .  S
C2151      H2156   1.109       .  S
C2151      H2157   1.108       .  S
C2154      H2158   1.108       .  S
C2154      H2159   1.110       .  S
C2154      H2160   1.111       .  S
C2161      C2162   1.401   1_554  A
C2161      C2166   1.399   1_554  A
C2161      H2168   1.085       .  S
C2162      C2163   1.412       .  A
C2163      C2164   1.394       .  A
C2163      C2170   1.508       .  S
C2164      C2165   1.397       .  A
C2164      H2169   1.085       .  S
C2165      C2166   1.414       .  A
C2166      C2167   1.508   1_556  S
C2167      H2171   1.110       .  S
C2167      H2172   1.110       .  S
C2167      H2173   1.107       .  S
C2170      H2174   1.108       .  S
C2170      H2175   1.109       .  S
C2170      H2176   1.111       .  S
C2177      C2178   1.407       .  A
C2177      C2182   1.416       .  A
C2177      H2184   1.084       .  S
C2178      C2179   1.417       .  A
C2180      C2181   1.405       .  A
C2180      H2185   1.084       .  S
C2182      C2183   1.505       .  S
C2183      H2187   1.110       .  S
C2183      H2188   1.109       .  S
C2186      H2191   1.110       .  S
C2186      H2192   1.111       .  S
C2193      C2198   1.415       .  A
C2193      H2200   1.077       .  S
C2194      C2195   1.426       .  A
C2195      C2196   1.407       .  A
C2195      C2202   1.510       .  S
C2196      H2201   1.085       .  S
C2197      C2198   1.411       .  A
C2198      C2199   1.504       .  S
C2199      H2203   1.111       .  S
C2199      H2205   1.110       .  S
C2202      H2206   1.102       .  S
C2202      H2208   1.110       .  S
C2209      C2214   1.407       .  A
C2209      H2216   1.083       .  S
C2210      C2211   1.422       .  A
C2211      C2212   1.418       .  A
C2211      C2218   1.505       .  S
C2212      C2213   1.410       .  A
C2212      H2217   1.084       .  S
C2214      C2215   1.500       .  S
C2215      H2219   1.111       .  S
C2215      H2220   1.107       .  S
C2215      H2221   1.110       .  S
C2218      H2222   1.110       .  S
C2218      H2223   1.108   1_655  S
C2218      H2224   1.111       .  S
C2225      C2226   1.404       .  A
C2225      C2230   1.418       .  A
C2225      H2232   1.084       .  S
C2227      C2228   1.408       .  A
C2227      C2234   1.512       .  S
C2228      H2233   1.073       .  S
C2229      C2230   1.425   1_455  A
C2230      C2231   1.505       .  S
C2231      H2235   1.111       .  S
C2231      H2236   1.106       .  S
C2231      H2237   1.106       .  S
C2234      H2239   1.109       .  S
C2234      H2240   1.111       .  S
C2241      C2242   1.406       .  A
C2241      C2246   1.402       .  A
C2241      H2248   1.083       .  S
C2242      C2243   1.416       .  A
C2243      C2244   1.415       .  A
C2243      C2250   1.506       .  S
C2244      C2245   1.409       .  A
C2244      H2249   1.084       .  S
C2245      C2246   1.421       .  A
C2246      C2247   1.513       .  S
C2247      H2251   1.110       .  S
C2247      H2252   1.105       .  S
C2247      H2253   1.109       .  S
C2250      H2254   1.109       .  S
C2250      H2255   1.110       .  S
C2250      H2256   1.111       .  S
C2257      C2258   1.406       .  A
C2257      C2262   1.405       .  A
C2257      H2264   1.080       .  S
C2258      C2259   1.432       .  A
C2259      C2260   1.419       .  A
C2259      C2266   1.508       .  S
C2260      C2261   1.406       .  A
C2260      H2265   1.084       .  S
C2261      C2262   1.428       .  A
C2262      C2263   1.514       .  S
C2263      H2267   1.111       .  S
C2263      H2268   1.108       .  S
C2263      H2269   1.109       .  S
C2266      H2270   1.111       .  S
C2266      H2271   1.105       .  S
C2266      H2272   1.110       .  S
C2273      C2274   1.395       .  A
C2273      C2278   1.408       .  A
C2273      H2280   1.072       .  S
C2274      C2275   1.425       .  A
C2275      C2276   1.415       .  A
C2275      C2282   1.508       .  S
C2276      C2277   1.407       .  A
C2276      H2281   1.084       .  S
C2277      C2278   1.433       .  A
C2278      C2279   1.513       .  S
C2279      H2283   1.111       .  S
C2279      H2284   1.111       .  S
C2279      H2285   1.110       .  S
C2282      H2286   1.107       .  S
C2282      H2287   1.110       .  S
C2282      H2288   1.111       .  S
C2289      C2290   1.417       .  A
C2289      C2294   1.405       .  A
C2289      H2296   1.083       .  S
C2290      C2291   1.422       .  A
C2291      C2292   1.418       .  A
C2291      C2298   1.506       .  S
C2292      C2293   1.411       .  A
C2292      H2297   1.084       .  S
C2293      C2294   1.410       .  A
C2294      C2295   1.506       .  S
C2295      H2299   1.111       .  S
C2295      H2300   1.110       .  S
C2295      H2301   1.104       .  S
C2298      H2302   1.111       .  S
C2298      H2303   1.110       .  S
C2298      H2304   1.111       .  S
C2305      C2306   1.398       .  A
C2305      C2310   1.394       .  A
C2305      H2312   1.085       .  S
C2306      C2307   1.415       .  A
C2307      C2308   1.397       .  A
C2307      C2314   1.505       .  S
C2308      C2309   1.398       .  A
C2308      H2313   1.084       .  S
C2309      C2310   1.415       .  A
C2310      C2311   1.509       .  S
C2311      H2315   1.110       .  S
C2311      H2316   1.107       .  S
C2311      H2317   1.110       .  S
C2314      H2318   1.109       .  S
C2314      H2319   1.109       .  S
C2314      H2320   1.111       .  S
C2321      C2322   1.399       .  A
C2321      C2326   1.394       .  A
C2321      H2328   1.084       .  S
C2322      C2323   1.414       .  A
C2323      C2324   1.390       .  A
C2323      C2330   1.508       .  S
C2324      C2325   1.393       .  A
C2324      H2329   1.083       .  S
C2325      C2326   1.409       .  A
C2326      C2327   1.507       .  S
C2327      H2331   1.108       .  S
C2327      H2332   1.111       .  S
C2327      H2333   1.110       .  S
C2330      H2334   1.108       .  S
C2330      H2335   1.110       .  S
C2330      H2336   1.111       .  S
C2337      C2338   1.400       .  A
C2337      C2342   1.392       .  A
C2337      H2344   1.086       .  S
C2338      C2339   1.407       .  A
C2339      C2340   1.394       .  A
C2339      C2346   1.509       .  S
C2340      C2341   1.403       .  A
C2340      H2345   1.085       .  S
C2341      C2342   1.410       .  A
C2342      C2343   1.509       .  S
C2343      H2347   1.110       .  S
C2343      H2348   1.108       .  S
C2343      H2349   1.111       .  S
C2346      H2350   1.110       .  S
C2346      H2351   1.110       .  S
C2346      H2352   1.111       .  S
C2353      C2354   1.401       .  A
C2353      C2358   1.396       .  A
C2353      H2360   1.083       .  S
C2354      C2355   1.411       .  A
C2355      C2356   1.404       .  A
C2355      C2362   1.507       .  S
C2356      C2357   1.404       .  A
C2356      H2361   1.084       .  S
C2357      C2358   1.408       .  A
C2358      C2359   1.507       .  S
C2359      H2363   1.111       .  S
C2359      H2364   1.110       .  S
C2359      H2365   1.109       .  S
C2362      H2366   1.110       .  S
C2362      H2367   1.110       .  S
C2362      H2368   1.111       .  S
C2369      C2370   1.404       .  A
C2369      C2374   1.418       .  A
C2369      H2376   1.084       .  S
C2370      C2371   1.429       .  A
C2371      C2372   1.407       .  A
C2371      C2378   1.513       .  S
C2372      C2373   1.405       .  A
C2372      H2377   1.081       .  S
C2373      C2374   1.434       .  A
C2374      C2375   1.509       .  S
C2375      H2379   1.111       .  S
C2375      H2380   1.110       .  S
C2375      H2381   1.105       .  S
C2378      H2382   1.109       .  S
C2378      H2383   1.110       .  S
C2378      H2384   1.111       .  S
C2385      C2386   1.403       .  A
C2385      C2390   1.409       .  A
C2385      H2392   1.084       .  S
C2386      C2387   1.419       .  A
C2387      C2388   1.416       .  A
C2387      C2394   1.505       .  S
C2388      C2389   1.405       .  A
C2388      H2393   1.084       .  S
C2389      C2390   1.420       .  A
C2390      C2391   1.510       .  S
C2391      H2395   1.111       .  S
C2391      H2396   1.109       .  S
C2391      H2397   1.111       .  S
C2394      H2398   1.110       .  S
C2394      H2399   1.108       .  S
C2394      H2400   1.111       .  S
C2401      C2402   1.421       .  A
C2401      C2406   1.407       .  A
C2401      H2408   1.083       .  S
C2402      C2403   1.419       .  A
C2403      C2404   1.414       .  A
C2403      C2410   1.506       .  S
C2404      C2405   1.411       .  A
C2404      H2409   1.084       .  S
C2405      C2406   1.406       .  A
C2406      C2407   1.508       .  S
C2407      H2411   1.111       .  S
C2407      H2412   1.111       .  S
C2407      H2413   1.108       .  S
C2410      H2414   1.110       .  S
C2410      H2415   1.110       .  S
C2410      H2416   1.111       .  S
C2417      C2418   1.407       .  A
C2417      C2422   1.421       .  A
C2417      H2424   1.083       .  S
C2418      C2419   1.421       .  A
C2419      C2420   1.409       .  A
C2419      C2426   1.506       .  S
C2420      C2421   1.403       .  A
C2420      H2425   1.084       .  S
C2421      C2422   1.419       .  A
C2422      C2423   1.501       .  S
C2423      H2427   1.110       .  S
C2423      H2428   1.109       .  S
C2423      H2429   1.109       .  S
C2426      H2430   1.111       .  S
C2426      H2431   1.107       .  S
C2426      H2432   1.111       .  S
