geometry optimzed in LAMMPS
_audit_creation_date              2020-12-01 
_audit_creation_method            'lammps2cif' 
_symmetry_space_group_name_H-M    'P1' 
_symmetry_Int_Tables_number       1 
_symmetry_cell_setting            triclinic 
loop_ 
_symmetry_equiv_pos_as_xyz 
  x,y,z 
_cell_length_a                    43.12391939 
_cell_length_b                    26.396060659010782 
_cell_length_c                    28.696123093793283 
_cell_angle_alpha                 90.0240715995865 
_cell_angle_beta                  89.68409002200549 
_cell_angle_gamma                 90.01435979243672 
loop_ 
_atom_site_label 
_atom_site_type_symbol 
_atom_site_fract_x 
_atom_site_fract_y 
_atom_site_fract_z 
_atom_site_charge 
O1          O  0.96535842  0.43723323  0.78476983    -0.72100
O2          O  0.02520841  0.03797905  0.78940384    -0.72400
O3          O  0.96273743  0.03426575  0.78699530    -0.72200
O4          O  0.02842583  0.43813398  0.78448220    -0.72200
O5          O  0.02974703  0.44535306  0.70920035    -0.72200
O6          O  0.96358343  0.03634076  0.71142342    -0.72200
O7          O  0.02573341  0.04323870  0.71388954    -0.72100
O8          O  0.96716512  0.43786894  0.70906304    -0.72300
V9          V  0.99607719  0.48809298  0.78559629     1.35200
V10         V  0.99621118  0.98916313  0.71196244     1.35200
C11         C  0.95538554  0.42073994  0.74649657     0.77100
C12         C  0.03592422  0.05811547  0.75302637     0.77200
C13         C  0.95164990  0.05121101  0.74909579     0.77000
C14         C  0.04083703  0.42620878  0.74571968     0.77000
C15         C  0.18083285  0.22134707  0.70031352     0.86100
C16         C  0.15587606  0.18297384  0.71372581    -0.54100
C17         C  0.13805702  0.19631062  0.75049315     0.09100
C18         C  0.14620392  0.24835087  0.77098059     0.20000
C19         C  0.16187897  0.27077005  0.69224076    -0.54800
C20         C  0.14340668  0.28447739  0.72939109     0.09200
C21         C  0.19902495  0.23153670  0.74530017    -0.54400
C22         C  0.18150701  0.24822210  0.78277978     0.09700
H23         H  0.15041283  0.14984343  0.69279634     0.14200
H24         H  0.12970837  0.25788962  0.79885441     0.00000
H25         H  0.16213350  0.29186383  0.65991745     0.14600
H26         H  0.22401130  0.22800323  0.74542191     0.14300
C27         C  0.81096905  0.22972738  0.80178936     0.86100
C28         C  0.82805226  0.18235890  0.78501549    -0.54100
C29         C  0.84751041  0.18951883  0.74841743     0.09100
C30         C  0.84544965  0.24320383  0.72757601     0.20000
C31         C  0.83663273  0.27080412  0.80703663    -0.54800
C32         C  0.85445068  0.27809928  0.76779746     0.09200
C33         C  0.79269058  0.24795640  0.75909408    -0.54400
C34         C  0.81065958  0.25507619  0.72011167     0.09700
H35         H  0.82850407  0.14756781  0.80535049     0.14200
H36         H  0.85977134  0.24816178  0.69560855     0.00000
H37         H  0.84071121  0.29087091  0.83938294     0.14600
H38         H  0.76894752  0.26104063  0.76027485     0.14300
C39         C  0.68948611  0.02629130  0.80097508     0.86100
C40         C  0.67331093  0.07475104  0.78456874    -0.54100
C41         C  0.65550656  0.06926039  0.74601982     0.09100
C42         C  0.65678675  0.52559171  0.72024633     0.20000
C43         C  0.66334181  0.49850264  0.80021255    -0.54800
C44         C  0.64720051  0.49017423  0.76001620     0.09200
C45         C  0.70839061  0.52434212  0.75512136    -0.54400
C46         C  0.69213252  0.51640523  0.71496300     0.09700
H47         H  0.67235201  0.10893225  0.80570091     0.14200
H48         H  0.64387610  0.51958496  0.68732647     0.00000
H49         H  0.65891798  0.47753379  0.83210516     0.14600
H50         H  0.73278991  0.51529847  0.75729044     0.14300
O51         O  0.47847626  0.22535351  0.79885622    -0.72100
O52         O  0.54171731  0.32341062  0.78749168    -0.72400
O53         O  0.47902550  0.32597601  0.79222972    -0.72200
O54         O  0.54089630  0.22230071  0.79161230    -0.72200
O55         O  0.54029752  0.22316975  0.71595889    -0.72200
O56         O  0.47427106  0.31661394  0.71742550    -0.72200
O57         O  0.53663558  0.32432753  0.71216194    -0.72100
O58         O  0.47801181  0.21677427  0.72371171    -0.72300
V59         V  0.51005917  0.27427581  0.79116096     1.35200
V60         V  0.50740786  0.27023959  0.71873790     1.35200
C61         C  0.46699017  0.20477865  0.76334952     0.77100
C62         C  0.54991185  0.34079933  0.74842544     0.77200
C63         C  0.46499771  0.33670232  0.75472639     0.77000
C64         C  0.55162837  0.20609548  0.75314921     0.77000
C65         C  0.32073553  0.04677930  0.70975116     0.86100
C66         C  0.33568824  0.09259994  0.73411533    -0.54100
C67         C  0.35532925  0.08126085  0.76884128     0.09100
C68         C  0.35241205  0.51611468  0.78447512     0.20000
C69         C  0.34893619  0.49312156  0.70326136    -0.54800
C70         C  0.36493375  0.48425008  0.74417394     0.09200
C71         C  0.30165891  0.51205826  0.74667650    -0.54400
C72         C  0.31729424  0.50185582  0.78729783     0.09700
H73         H  0.33459749  0.13145867  0.72264485     0.14200
H74         H  0.36357649  0.51154454  0.81841846     0.00000
H75         H  0.35479532  0.47446813  0.67066892     0.14600
H76         H  0.27717462  0.50425380  0.74249029     0.14300
C77         C  0.23713584  0.35461097  0.94393478     0.01900
C78         C  0.25957094  0.39434580  0.94468990     0.01900
C79         C  0.27057066  0.41182230  0.98809213    -0.18600
C80         C  0.25896269  0.39408907  0.03131671     0.01900
C81         C  0.23653202  0.35410285  0.03053689     0.01900
C82         C  0.22635985  0.33570189  0.98713522    -0.18600
H83         H  0.20944752  0.30535778  0.98720360     0.03900
H84         H  0.28880227  0.44004649  0.98789044     0.03900
O85         O  0.03127190  0.05022754  0.28343479    -0.72100
O86         O  0.97109401  0.44985898  0.29759173    -0.72400
O87         O  0.03383059  0.45023760  0.29037880    -0.72200
O88         O  0.96936603  0.04725124  0.29495819    -0.72200
O89         O  0.96399775  0.04599170  0.21985806    -0.72200
O90         O  0.03038355  0.44900174  0.21501641    -0.72200
O91         O  0.96792582  0.44944475  0.22232174    -0.72100
O92         O  0.02597587  0.04668250  0.20827310    -0.72300
V93         V  0.00056960  0.99782029  0.28885675     1.35200
V94         V  0.99599390  0.99577390  0.21661383     1.35200
C95         C  0.03907074  0.06582645  0.24312702     0.77100
C96         C  0.95805888  0.43333454  0.26098703     0.77200
C97         C  0.04315225  0.43274622  0.25185907     0.77000
C98         C  0.95553958  0.06308939  0.25936269     0.77000
C99         C  0.18430023  0.22452404  0.27617879     0.86100
C100        C  0.20245007  0.24198629  0.23292109    -0.54100
C101        C  0.18414296  0.25835891  0.19721832     0.09100
C102        C  0.14896467  0.25339916  0.20722875     0.20000
C103        C  0.16246385  0.27001184  0.28794610    -0.54800
C104        C  0.14357652  0.28472059  0.25162160     0.09200
C105        C  0.16151676  0.18431935  0.25889782    -0.54400
C106        C  0.14297449  0.19874837  0.22341091     0.09700
H107        H  0.22759611  0.24381894  0.23160517     0.14200
H108        H  0.13430132  0.26378047  0.17708163     0.00000
H109        H  0.16159381  0.28802166  0.32183740     0.14600
H110        H  0.15665461  0.14988327  0.27841593     0.14300
C111        C  0.80982872  0.23977832  0.22629004     0.86100
C112        C  0.79397368  0.25358690  0.27254850    -0.54100
C113        C  0.81423217  0.26093442  0.30843322     0.09100
C114        C  0.84882613  0.25362408  0.29475063     0.20000
C115        C  0.83296341  0.28467584  0.21923754    -0.54800
C116        C  0.85385764  0.29145368  0.25481378     0.09200
C117        C  0.83000698  0.19389443  0.23763044    -0.54400
C118        C  0.85160708  0.20153895  0.27082170     0.09700
H119        H  0.76976013  0.26330996  0.27629395     0.14200
H120        H  0.86500934  0.25757642  0.32441991     0.00000
H121        H  0.83190352  0.30947651  0.18921142     0.14600
H122        H  0.82975134  0.15952573  0.21667204     0.14300
C123        C  0.68730405  0.00405391  0.22424688     0.86100
C124        C  0.70665330  0.99482425  0.26846442    -0.54100
C125        C  0.68791269  0.48355768  0.30606488     0.09100
C126        C  0.65240115  0.48588367  0.29929322     0.20000
C127        C  0.66314869  0.45406299  0.22134628    -0.54800
C128        C  0.64604517  0.44613452  0.26141368     0.09200
C129        C  0.66490177  0.04656391  0.23829439    -0.54400
C130        C  0.64668950  0.03627938  0.27575331     0.09700
H131        H  0.73166063  0.99188020  0.26940796     0.14200
H132        H  0.63888422  0.48095485  0.33191865     0.00000
H133        H  0.66168285  0.42894750  0.19156061     0.14600
H134        H  0.66168546  0.08063401  0.21759771     0.14300
C135        C  0.31707831  0.47602253  0.20186091     0.86100
C136        C  0.29649179  0.98653130  0.24489445    -0.54100
C137        C  0.31393655  0.99683350  0.28328946     0.09100
C138        C  0.34904461  0.99506127  0.27429886     0.20000
C139        C  0.33702761  0.02480735  0.19623449    -0.54800
C140        C  0.35465427  0.03399535  0.23570906     0.09200
C141        C  0.34067115  0.43541586  0.21528005    -0.54400
C142        C  0.35838297  0.44669288  0.25249799     0.09700
H143        H  0.27136142  0.98928500  0.24485688     0.14200
H144        H  0.36264245  0.00133848  0.30654523     0.00000
H145        H  0.33987281  0.04609547  0.16429731     0.14600
H146        H  0.34486139  0.40166183  0.19454533     0.14300
O147        O  0.53102799  0.28878971  0.31395422    -0.72100
O148        O  0.46623382  0.18820509  0.31065837    -0.72400
O149        O  0.52925467  0.18725372  0.31611658    -0.72200
O150        O  0.46855556  0.28986731  0.31171660    -0.72200
O151        O  0.47285152  0.29312401  0.23648813    -0.72200
O152        O  0.52939861  0.18206731  0.24057781    -0.72200
O153        O  0.46705316  0.19294793  0.23506586    -0.72100
O154        O  0.53443956  0.28287997  0.23872959    -0.72300
V155        V  0.49878500  0.23832041  0.31180359     1.35200
V156        V  0.50092105  0.23759046  0.23924209     1.35200
C157        C  0.54371493  0.30280713  0.27594422     0.77100
C158        C  0.45485039  0.17547468  0.27152347     0.77200
C159        C  0.54018461  0.16775688  0.27948853     0.77000
C160        C  0.46050922  0.30960175  0.27376403     0.77000
C161        C  0.74710913  0.09408684  0.97321336     0.01900
C162        C  0.76074033  0.14270259  0.97331537     0.01900
C163        C  0.76604238  0.16680529  0.01598608    -0.18600
C164        C  0.76031880  0.14306607  0.05914417     0.01900
C165        C  0.74632912  0.09406557  0.05896721     0.01900
C166        C  0.74043172  0.07049021  0.01582739    -0.18600
H167        H  0.72911853  0.03376803  0.01530147     0.03900
H168        H  0.77515043  0.20508402  0.01532484     0.03900
C169        C  0.23848089  0.13823666  0.53017650     0.01900
C170        C  0.26131581  0.09937471  0.53160378     0.01900
C171        C  0.27192731  0.07757052  0.48997683    -0.18600
C172        C  0.26199930  0.09517651  0.44637737     0.01900
C173        C  0.24008343  0.13550626  0.44395289     0.01900
C174        C  0.22731723  0.15372475  0.48625426    -0.18600
H175        H  0.20816027  0.18002895  0.48472985     0.03900
H176        H  0.28934107  0.04796278  0.49145223     0.03900
C177        C  0.74604564  0.40819146  0.55812097     0.01900
C178        C  0.76625631  0.36608986  0.55969002     0.01900
C179        C  0.77670390  0.34425991  0.51791263    -0.18600
C180        C  0.76649016  0.36139979  0.47422526     0.01900
C181        C  0.74558176  0.40312453  0.47257435     0.01900
C182        C  0.73624936  0.42627214  0.51463077    -0.18600
H183        H  0.72020153  0.45788309  0.51366119     0.03900
H184        H  0.79299367  0.31303397  0.51962023     0.03900
C185        C  0.26461837  0.02238102  0.39117940    -0.26700
C186        C  0.27564691  0.07031696  0.40466411    -0.14700
C187        C  0.30020196  0.09266207  0.37937966     0.35900
C188        C  0.31254032  0.06764198  0.34048206    -0.26100
C189        C  0.30073868  0.02061769  0.32586653    -0.15400
C190        C  0.27655667  0.99788803  0.35145337     0.37000
N191        N  0.26615718  0.45267311  0.33955324    -0.89600
H192        H  0.24612471  0.00456815  0.41096601     0.18100
H193        H  0.33118586  0.08553599  0.32110452     0.18100
N194        N  0.31331814  0.14025247  0.39294911    -0.88600
H195        H  0.24236889  0.45656632  0.33368884     0.35500
H196        H  0.26909262  0.42801757  0.36769040     0.40600
H197        H  0.32121433  0.13700615  0.42719979     0.40200
H198        H  0.29591341  0.16775360  0.39218122     0.35100
C199        C  0.39093743  0.39309870  0.30323740    -0.26700
C200        C  0.38725007  0.41831264  0.26086066    -0.14700
C201        C  0.41005796  0.41273079  0.22543619     0.35900
C202        C  0.43445412  0.37902775  0.23184017    -0.26100
C203        C  0.43680611  0.35011715  0.27256827    -0.15400
C204        C  0.41536122  0.35894324  0.30956536     0.37000
N205        N  0.41683943  0.33262432  0.35313296    -0.89600
H206        H  0.37384866  0.39801438  0.33072314     0.18100
H207        H  0.45120131  0.37429453  0.20386662     0.18100
N208        N  0.40918852  0.44044089  0.18244563    -0.88600
H209        H  0.43804029  0.34077791  0.36893682     0.35500
H210        H  0.41513274  0.29370287  0.34692900     0.40600
H211        H  0.40604274  0.98382532  0.19082081     0.40200
H212        H  0.39011735  0.42919670  0.16282693     0.35100
C213        C  0.40727773  0.05575902  0.26537478    -0.26700
C214        C  0.38031127  0.07186513  0.24179122    -0.14700
C215        C  0.37752222  0.12390586  0.23077336     0.35900
C216        C  0.40161103  0.15751964  0.24246706    -0.26100
C217        C  0.42810622  0.14092144  0.26654139    -0.15400
C218        C  0.43072015  0.08968685  0.27828217     0.37000
N219        N  0.45766972  0.07162069  0.30202835    -0.89600
H220        H  0.41041772  0.01623789  0.27413185     0.18100
H221        H  0.39966756  0.19703179  0.23262832     0.18100
N222        N  0.35034312  0.14413573  0.20925011    -0.88600
H223        H  0.46815285  0.04386607  0.28125380     0.35500
H224        H  0.45040155  0.05446020  0.33305390     0.40600
H225        H  0.33097299  0.13381800  0.22916849     0.40200
H226        H  0.34831670  0.12871034  0.17593188     0.35100
C227        C  0.70251538  0.41166423  0.35697591    -0.26700
C228        C  0.70286082  0.46392465  0.34870139    -0.14700
C229        C  0.71865648  0.49599577  0.37981334     0.35900
C230        C  0.73324318  0.47528796  0.41900844    -0.26100
C231        C  0.73195471  0.42291455  0.42839918    -0.15400
C232        C  0.71576278  0.39115360  0.39732529     0.37000
N233        N  0.71167956  0.33844241  0.40738776    -0.89600
H234        H  0.69172848  0.38657128  0.33201596     0.18100
H235        H  0.74536723  0.50034116  0.44265061     0.18100
N236        N  0.72342479  0.04838393  0.37393768    -0.88600
H237        H  0.72048019  0.31763644  0.37925862     0.35500
H238        H  0.68790060  0.33115765  0.40979591     0.40600
H239        H  0.70107269  0.06366853  0.37281277     0.40200
H240        H  0.73413483  0.05474642  0.34170669     0.35100
C241        C  0.73661146  0.03006851  0.17811001    -0.26700
C242        C  0.70437621  0.01918762  0.17874308    -0.14700
C243        C  0.68742400  0.03023610  0.13734800     0.35900
C244        C  0.70170950  0.05563542  0.10044718    -0.26100
C245        C  0.73321198  0.06845724  0.10107125    -0.15400
C246        C  0.75106792  0.05358260  0.13952038     0.37000
N247        N  0.78385681  0.06216615  0.13957656    -0.89600
H248        H  0.75111036  0.02185493  0.20756141     0.18100
H249        H  0.68779921  0.06538877  0.07038188     0.18100
N250        N  0.65549454  0.01688624  0.13101017    -0.88600
H251        H  0.79486838  0.02715684  0.14347517     0.35500
H252        H  0.78921706  0.08435081  0.16863945     0.40600
H253        H  0.63785413  0.52947936  0.15783913     0.40200
H254        H  0.64932234  0.47542402  0.12989614     0.35100
C255        C  0.61568113  0.10408902  0.31436849    -0.26700
C256        C  0.61726273  0.06448401  0.28206806    -0.14700
C257        C  0.59239604  0.05692843  0.25099625     0.35900
C258        C  0.56707395  0.09022169  0.25128805    -0.26100
C259        C  0.56589314  0.13087832  0.28246905    -0.15400
C260        C  0.59017657  0.13728213  0.31492408     0.37000
N261        N  0.58985350  0.17906948  0.34679388    -0.89600
H262        H  0.63488250  0.11060952  0.33783706     0.18100
H263        H  0.54846150  0.08462913  0.22657614     0.18100
N264        N  0.59304281  0.01605504  0.21827666    -0.88600
H265        H  0.60964446  0.20100675  0.34059797     0.35500
H266        H  0.59125020  0.16458275  0.38062067     0.40600
H267        H  0.56898491  0.48623400  0.26387334     0.40200
H268        H  0.57363709  0.99329951  0.22468495     0.35100
C269        C  0.60103124  0.39960882  0.22804070    -0.26700
C270        C  0.62093997  0.40705466  0.26590678    -0.14700
C271        C  0.61415764  0.38165299  0.30832205     0.35900
C272        C  0.58857332  0.34871702  0.31146923    -0.26100
C273        C  0.56900237  0.34103851  0.27340240    -0.15400
C274        C  0.57480172  0.36821957  0.23163012     0.37000
N275        N  0.55353840  0.36503953  0.19327912    -0.89600
H276        H  0.60498916  0.42056666  0.19610521     0.18100
H277        H  0.58434225  0.32844277  0.34371984     0.18100
N278        N  0.63328783  0.38821270  0.34836295    -0.88600
H279        H  0.56114738  0.38720490  0.16527231     0.35500
H280        H  0.53245770  0.38059432  0.20441876     0.40600
H281        H  0.64142048  0.35255943  0.35840552     0.40200
H282        H  0.61945035  0.40225215  0.37547076     0.35100
C283        C  0.79058572  0.25804889  0.38780327    -0.26700
C284        C  0.80384584  0.28662024  0.35178701    -0.14700
C285        C  0.80380793  0.33991720  0.35511188     0.35900
C286        C  0.79195689  0.36367890  0.39525501    -0.26100
C287        C  0.77878421  0.33525218  0.43165352    -0.15400
C288        C  0.77782718  0.28181272  0.42737107     0.37000
N289        N  0.76279523  0.25165578  0.46230617    -0.89600
H290        H  0.78941415  0.21717323  0.38466539     0.18100
H291        H  0.79282301  0.40460595  0.39774084     0.18100
N292        N  0.81473521  0.37018376  0.31703604    -0.88600
H293        H  0.77889952  0.22552773  0.47496517     0.35500
H294        H  0.74485911  0.23145778  0.44644114     0.40600
H295        H  0.83191503  0.39448827  0.32957194     0.40200
H296        H  0.79630442  0.39261985  0.30561560     0.35100
C297        C  0.80900272  0.22317291  0.14120053    -0.26700
C298        C  0.79113116  0.22598652  0.18238609    -0.14700
C299        C  0.76181352  0.20059198  0.18212019     0.35900
C300        C  0.75139457  0.17612190  0.14142205    -0.26100
C301        C  0.77058488  0.17099583  0.10199610    -0.15400
C302        C  0.80001949  0.19433295  0.10291123     0.37000
N303        N  0.82197406  0.18664168  0.06592451    -0.89600
H304        H  0.83213299  0.23902166  0.14003616     0.18100
H305        H  0.72844837  0.15950109  0.14144030     0.18100
N306        N  0.74223462  0.19699721  0.22231782    -0.88600
H307        H  0.84173131  0.16954169  0.07985493     0.35500
H308        H  0.82841710  0.22217918  0.05299556     0.40600
H309        H  0.73448054  0.23317495  0.23126096     0.40200
H310        H  0.75451234  0.18027738  0.24956538     0.35100
C311        C  0.21320845  0.23391285  0.35385775    -0.26700
C312        C  0.20463985  0.20344380  0.31590245    -0.14700
C313        C  0.21356926  0.15156103  0.31720147     0.35900
C314        C  0.22316229  0.12979795  0.35946728    -0.26100
C315        C  0.22987374  0.15958340  0.39867703    -0.15400
C316        C  0.22677660  0.21282846  0.39404258     0.37000
N317        N  0.23771994  0.24599079  0.42979976    -0.89600
H318        H  0.20967075  0.27445797  0.35247797     0.18100
H319        H  0.22483541  0.08916377  0.36139784     0.18100
N320        N  0.21235869  0.12074351  0.27586680    -0.88600
H321        H  0.21925636  0.26920582  0.44000523     0.35500
H322        H  0.25483584  0.26926859  0.41526137     0.40600
H323        H  0.22816421  0.13590789  0.25189704     0.40200
H324        H  0.21977259  0.08380324  0.28282283     0.35100
C325        C  0.11198193  0.35219642  0.21299237    -0.26700
C326        C  0.11867594  0.32435852  0.25361391    -0.14700
C327        C  0.09964768  0.33177199  0.29321902     0.35900
C328        C  0.07527177  0.36714148  0.29173742    -0.26100
C329        C  0.06868827  0.39479686  0.25102338    -0.15400
C330        C  0.08736997  0.38694071  0.21129953     0.37000
N331        N  0.08188052  0.41469649  0.16926764    -0.89600
H332        H  0.12585666  0.34716522  0.18186128     0.18100
H333        H  0.06100519  0.37220922  0.32259181     0.18100
N334        N  0.10394594  0.30210420  0.33442794    -0.88600
H335        H  0.07784601  0.38865275  0.14251194     0.35500
H336        H  0.09947671  0.93361436  0.15709134     0.40600
H337        H  0.08336561  0.28243495  0.34124031     0.40200
H338        H  0.10789059  0.32685007  0.36222838     0.35100
C339        C  0.08396279  0.09795835  0.19750215    -0.26700
C340        C  0.06346454  0.10429316  0.23543447    -0.14700
C341        C  0.06642961  0.14710886  0.26430648     0.35900
C342        C  0.09094217  0.18115553  0.25624892    -0.26100
C343        C  0.11266348  0.17282098  0.22030966    -0.15400
C344        C  0.10883404  0.13148703  0.19010422     0.37000
N345        N  0.13126550  0.12218624  0.15388083    -0.89600
H346        H  0.08143124  0.06534131  0.17488206     0.18100
H347        H  0.09437630  0.21251775  0.27997436     0.18100
N348        N  0.04490631  0.15542367  0.30195704    -0.88600
H349        H  0.12538628  0.08970423  0.13502116     0.35500
H350        H  0.13026926  0.15259185  0.13059698     0.40600
H351        H  0.02305089  0.16143179  0.28735611     0.40200
H352        H  0.05054570  0.18851336  0.32008478     0.35100
C353        C  0.92283186  0.13101636  0.22615851    -0.26700
C354        C  0.93006714  0.10050247  0.26429720    -0.14700
C355        C  0.91296597  0.10644568  0.30643343     0.35900
C356        C  0.88842086  0.14168702  0.30857846    -0.26100
C357        C  0.88039366  0.17044133  0.26957540    -0.15400
C358        C  0.89854605  0.16574397  0.22825570     0.37000
N359        N  0.89353798  0.19650876  0.18797501    -0.89600
H360        H  0.93619069  0.12791801  0.19416838     0.18100
H361        H  0.87470078  0.14525057  0.34016326     0.18100
N362        N  0.91988589  0.07580920  0.34646216    -0.88600
H363        H  0.87214591  0.18780566  0.17331584     0.35500
H364        H  0.89386303  0.23427747  0.19839471     0.40600
H365        H  0.90565492  0.08571502  0.37464290     0.40200
H366        H  0.91446197  0.03829562  0.33806856     0.35100
C367        C  0.92108115  0.37809046  0.21823542    -0.26700
C368        C  0.93139903  0.39709246  0.26134866    -0.14700
C369        C  0.91483299  0.38300171  0.30202072     0.35900
C370        C  0.88960461  0.34957125  0.29870345    -0.26100
C371        C  0.87956673  0.32999376  0.25556944    -0.15400
C372        C  0.89557952  0.34533265  0.21486202     0.37000
N373        N  0.88679490  0.32711130  0.16981428    -0.89600
H374        H  0.93295748  0.38852700  0.18628083     0.18100
H375        H  0.87755225  0.33953340  0.33053941     0.18100
N376        N  0.92251642  0.40245708  0.34709041    -0.88600
H377        H  0.90599978  0.30931726  0.15458700     0.35500
H378        H  0.88113533  0.35836824  0.14917394     0.40600
H379        H  0.92103741  0.44197975  0.34617126     0.40200
H380        H  0.94520669  0.39175049  0.35503529     0.35100
C381        C  0.20958972  0.25420478  0.11925744    -0.26700
C382        C  0.19719561  0.28413005  0.15510157    -0.14700
C383        C  0.19847122  0.33773835  0.15055701     0.35900
C384        C  0.20982137  0.35943734  0.10906541    -0.26100
C385        C  0.22285378  0.32960497  0.07345064    -0.15400
C386        C  0.22309379  0.27618920  0.07920616     0.37000
N387        N  0.23759099  0.24439548  0.04471318    -0.89600
H388        H  0.20935119  0.21335695  0.12307303     0.18100
H389        H  0.20977710  0.40030975  0.10554785     0.18100
N390        N  0.19049548  0.37154823  0.18800635    -0.88600
H391        H  0.23572676  0.20621155  0.05399261     0.35500
H392        H  0.26125187  0.25304265  0.04426544     0.40600
H393        H  0.18401461  0.35216333  0.21809670     0.40200
H394        H  0.17172348  0.39367903  0.17744799     0.35100
C395        C  0.27821866  0.38585999  0.11407533    -0.26700
C396        C  0.27173772  0.41700759  0.07577635    -0.14700
C397        C  0.27746699  0.46984538  0.08071892     0.35900
C398        C  0.29163011  0.48868941  0.12164676    -0.26100
C399        C  0.29755332  0.45720825  0.16016858    -0.15400
C400        C  0.28733845  0.40576703  0.15706822     0.37000
N401        N  0.28538951  0.37225010  0.19653416    -0.89600
H402        H  0.27503230  0.34533139  0.11160354     0.18100
H403        H  0.29711148  0.52857300  0.12368211     0.18100
N404        N  0.26881087  0.50445764  0.04437809    -0.88600
H405        H  0.28836073  0.39086021  0.22819529     0.35500
H406        H  0.30241385  0.34430015  0.19303365     0.40600
H407        H  0.27469006  0.54165274  0.05322533     0.40200
H408        H  0.24466005  0.50336008  0.04156688     0.35100
C409        C  0.27061597  0.48065767  0.83792224    -0.26700
C410        C  0.30241616  0.47383457  0.82774636    -0.14700
C411        C  0.31906577  0.43860632  0.85524427     0.35900
C412        C  0.30437406  0.41356193  0.89256494    -0.26100
C413        C  0.27262471  0.41973843  0.90212042    -0.15400
C414        C  0.25556353  0.45427633  0.87440851     0.37000
N415        N  0.22327030  0.46468041  0.88272469    -0.89600
H416        H  0.25765014  0.01913477  0.82206762     0.18100
H417        H  0.31782762  0.38771501  0.91373783     0.18100
N418        N  0.35062394  0.42614544  0.84463608    -0.88600
H419        H  0.22283641  0.98385207  0.92133954     0.35500
H420        H  0.21452914  0.44389690  0.91075250     0.40600
H421        H  0.35192046  0.38727655  0.83785995     0.40200
H422        H  0.36403944  0.43381806  0.87405411     0.35100
C423        C  0.30939883  0.10754455  0.64092490    -0.26700
C424        C  0.30441092  0.06013860  0.66323499    -0.14700
C425        C  0.28638738  0.02401222  0.63886578     0.35900
C426        C  0.27296396  0.03647943  0.59549144    -0.26100
C427        C  0.27700817  0.08477415  0.57569352    -0.15400
C428        C  0.29593003  0.11985242  0.59828897     0.37000
N429        N  0.30209586  0.16816524  0.57736262    -0.89600
H430        H  0.32461589  0.13607155  0.65427254     0.18100
H431        H  0.25880594  0.00872475  0.57768044     0.18100
N432        N  0.27308115  0.47034603  0.66014687    -0.88600
H433        H  0.32605475  0.17159238  0.57253851     0.35500
H434        H  0.29496585  0.19635379  0.60068212     0.40600
H435        H  0.27620825  0.44151143  0.63558155     0.40200
H436        H  0.24936724  0.47300646  0.66754464     0.35100
C437        C  0.44103942  0.41711940  0.77906458    -0.26700
C438        C  0.43869657  0.37236945  0.75377974    -0.14700
C439        C  0.41192827  0.36367501  0.72661372     0.35900
C440        C  0.38851405  0.40042641  0.72487206    -0.26100
C441        C  0.39103465  0.44661958  0.74905435    -0.15400
C442        C  0.41816171  0.45438578  0.77687660     0.37000
N443        N  0.42521994  0.50032057  0.80091355    -0.89600
H444        H  0.46167752  0.42427424  0.79949472     0.18100
H445        H  0.36803392  0.39252867  0.70440436     0.18100
N446        N  0.40742940  0.31737841  0.70142611    -0.88600
H447        H  0.41064963  0.50599715  0.82936359     0.35500
H448        H  0.42518414  0.53035164  0.77765310     0.40600
H449        H  0.40957023  0.28704284  0.72461816     0.40200
H450        H  0.42453965  0.31429355  0.67568899     0.35100
C451        C  0.42909454  0.14827864  0.72640809    -0.26700
C452        C  0.44022397  0.16970684  0.76735502    -0.14700
C453        C  0.42432102  0.15980810  0.80975906     0.35900
C454        C  0.39702935  0.13026835  0.80968771    -0.26100
C455        C  0.38538143  0.11000058  0.76813115    -0.15400
C456        C  0.40254092  0.11871749  0.72592402     0.37000
N457        N  0.39557757  0.09550018  0.68208585    -0.89600
H458        H  0.44126157  0.15429834  0.69370911     0.18100
H459        H  0.38470360  0.12368526  0.84213296     0.18100
N460        N  0.43538688  0.18014261  0.85283674    -0.88600
H461        H  0.37424367  0.10732090  0.66946989     0.35500
H462        H  0.39688500  0.05626107  0.68517358     0.40600
H463        H  0.43947724  0.14992687  0.87553473     0.40200
H464        H  0.41784325  0.20260627  0.86731693     0.35100
C465        C  0.70165156  0.07153073  0.92619901    -0.26700
C466        C  0.73392464  0.07128002  0.93047434    -0.14700
C467        C  0.75207836  0.04920388  0.89482295     0.35900
C468        C  0.73778282  0.03234983  0.85377955    -0.26100
C469        C  0.70533017  0.03587161  0.84788009    -0.15400
C470        C  0.68725219  0.05366179  0.88593199     0.37000
N471        N  0.65408449  0.05557012  0.88312501    -0.89600
H472        H  0.68744059  0.08693503  0.95409332     0.18100
H473        H  0.75055607  0.53215731  0.82485866     0.18100
N474        N  0.78484885  0.04243725  0.89971176    -0.88600
H475        H  0.64704709  0.09313404  0.88789783     0.35500
H476        H  0.64490646  0.03399788  0.91045951     0.40600
H477        H  0.78878592  0.02118101  0.92983518     0.40200
H478        H  0.79170942  0.58829084  0.90646862     0.35100
C479        C  0.69405780  0.44288416  0.66064048    -0.26700
C480        C  0.70630568  0.48988857  0.67425239    -0.14700
C481        C  0.73241349  0.50933649  0.65003954     0.35900
C482        C  0.74581126  0.48120759  0.61355942    -0.26100
C483        C  0.73381834  0.43379819  0.60058981    -0.15400
C484        C  0.70749140  0.41495319  0.62401203     0.37000
N485        N  0.69382240  0.36804846  0.60979044    -0.89600
H486        H  0.67401930  0.42754627  0.67870374     0.18100
H487        H  0.76532739  0.49692669  0.59449931     0.18100
N488        N  0.74486677  0.55843434  0.66019911    -0.88600
H489        H  0.67091146  0.37523825  0.60008128     0.35500
H490        H  0.69333863  0.34385391  0.63862487     0.40600
H491        H  0.75322846  0.55873269  0.69425061     0.40200
H492        H  0.72701267  0.58507145  0.65763102     0.35100
C493        C  0.60408265  0.09375170  0.77736256    -0.26700
C494        C  0.62723491  0.10064332  0.74329529    -0.14700
C495        C  0.62497692  0.14099510  0.71186379     0.35900
C496        C  0.59984266  0.17459097  0.71535435    -0.26100
C497        C  0.57726642  0.16905732  0.75066887    -0.15400
C498        C  0.57919626  0.12774321  0.78165202     0.37000
N499        N  0.55566982  0.11973863  0.81657277    -0.89600
H500        H  0.60607940  0.06259299  0.80175060     0.18100
H501        H  0.59844783  0.20602101  0.69116137     0.18100
N502        N  0.64859456  0.14869446  0.67732313    -0.88600
H503        H  0.55796717  0.14833150  0.84151213     0.35500
H504        H  0.55947989  0.08560472  0.83411316     0.40600
H505        H  0.65808804  0.18472165  0.68237452     0.40200
H506        H  0.63808018  0.14814462  0.64458728     0.35100
C507        C  0.59568587  0.46179161  0.73026211    -0.26700
C508        C  0.62298727  0.45053690  0.75482683    -0.14700
C509        C  0.62701547  0.40147094  0.77346932     0.35900
C510        C  0.60288341  0.36606969  0.76990710    -0.26100
C511        C  0.57536833  0.37783968  0.74652030    -0.15400
C512        C  0.57192069  0.42568720  0.72581632     0.37000
N513        N  0.54385431  0.43841805  0.70210705    -0.89600
H514        H  0.59236447  0.49917403  0.71554288     0.18100
H515        H  0.60554090  0.32887058  0.78538532     0.18100
N516        N  0.65568764  0.38748055  0.79532858    -0.88600
H517        H  0.54962818  0.44884320  0.66800164     0.35500
H518        H  0.53409141  0.46996531  0.71863981     0.40600
H519        H  0.67310024  0.38890458  0.76985562     0.40200
H520        H  0.65479596  0.35004399  0.80715563     0.35100
C521        C  0.75155185  0.18139872  0.89422788    -0.26700
C522        C  0.77189191  0.16859350  0.93029748    -0.14700
C523        C  0.80350862  0.18055747  0.92547539     0.35900
C524        C  0.81419249  0.20502816  0.88544238    -0.26100
C525        C  0.79448723  0.21638413  0.84783081    -0.15400
C526        C  0.76252172  0.20389049  0.85269040     0.37000
N527        N  0.74112205  0.21141566  0.81549484    -0.89600
H528        H  0.72711428  0.17257227  0.89767323     0.18100
H529        H  0.83888436  0.21181980  0.88247111     0.18100
N530        N  0.82535348  0.16512615  0.96011390    -0.88600
H531        H  0.72329501  0.23492965  0.82756571     0.35500
H532        H  0.73144463  0.17633617  0.80684388     0.40600
H533        H  0.84135488  0.14066986  0.94436772     0.40200
H534        H  0.83739946  0.19731472  0.97110030     0.35100
C535        C  0.81598569  0.32478898  0.66159603    -0.35500
C536        C  0.79891987  0.28338787  0.67888535    -0.14700
C537        C  0.77034693  0.27115857  0.65800111     0.35900
C538        C  0.75937300  0.30028363  0.62059479    -0.26100
C539        C  0.77629069  0.34183916  0.60368568    -0.15400
C540        C  0.80504316  0.35380949  0.62421745     0.37000
N541        N  0.82378261  0.39466353  0.60716360    -0.89600
H542        H  0.83787809  0.33496994  0.67739633     0.18100
H543        H  0.73799215  0.28936967  0.60366267     0.18100
N544        N  0.75293158  0.22812281  0.67361582    -0.88600
H545        H  0.81074671  0.42798334  0.60910907     0.35500
H546        H  0.82910770  0.38770938  0.57216020     0.40600
H547        H  0.75024815  0.20344054  0.64541560     0.40200
H548        H  0.73090847  0.24064388  0.68378256     0.35100
C549        C  0.22784253  0.28645799  0.82571324    -0.26700
C550        C  0.19586426  0.27391246  0.82542191    -0.14700
C551        C  0.17836940  0.28882550  0.86523430     0.35900
C552        C  0.19178303  0.31942680  0.89989805    -0.26100
C553        C  0.22366113  0.33090787  0.90042391    -0.15400
C554        C  0.24188550  0.31216064  0.86325785     0.37000
N555        N  0.27492665  0.31636749  0.86420147    -0.89600
H556        H  0.24290504  0.27575102  0.79728935     0.18100
H557        H  0.17712006  0.33188628  0.92846743     0.18100
N558        N  0.14757053  0.27063174  0.87316499    -0.88600
H559        H  0.28205319  0.33483596  0.83373069     0.35500
H560        H  0.28425748  0.27982086  0.86356995     0.40600
H561        H  0.13291087  0.30184066  0.87758071     0.40200
H562        H  0.14738509  0.24992863  0.90422600     0.35100
C563        C  0.20996730  0.23385334  0.62268688    -0.26700
C564        C  0.20066062  0.20161204  0.65917571    -0.14700
C565        C  0.20813724  0.14937155  0.65498184     0.35900
C566        C  0.21765894  0.12984946  0.61168002    -0.26100
C567        C  0.22559317  0.16163125  0.57422966    -0.15400
C568        C  0.22302871  0.21481177  0.58126992     0.37000
N569        N  0.23412023  0.25085716  0.54790098    -0.89600
H570        H  0.20749510  0.27443423  0.62618812     0.18100
H571        H  0.21936998  0.08923522  0.60758019     0.18100
N572        N  0.20562855  0.11601951  0.69448263    -0.88600
H573        H  0.21930503  0.25103235  0.51943076     0.35500
H574        H  0.25651928  0.24079767  0.53732756     0.40600
H575        H  0.22173776  0.12815886  0.71918186     0.40200
H576        H  0.21192847  0.07904003  0.68539196     0.35100
C577        C  0.07492454  0.36953456  0.69826764    -0.26700
C578        C  0.06804979  0.39173603  0.74176783    -0.14700
C579        C  0.08843478  0.38314788  0.77909203     0.35900
C580        C  0.11414600  0.35114506  0.77288498    -0.26100
C581        C  0.11991737  0.32625545  0.73028375    -0.15400
C582        C  0.10047304  0.33710498  0.69216485     0.37000
N583        N  0.10593353  0.31469876  0.64741372    -0.89600
H584        H  0.06001409  0.37658649  0.66870006     0.18100
H585        H  0.12952436  0.34523803  0.80205193     0.18100
N586        N  0.08349256  0.40728101  0.82321133    -0.88600
H587        H  0.10977615  0.34397477  0.62354545     0.35500
H588        H  0.08582483  0.29570275  0.63719004     0.40600
H589        H  0.10315008  0.42887382  0.83085587     0.40200
H590        H  0.08144886  0.37904731  0.84859164     0.35100
C591        C  0.06114956  0.13638561  0.72380895    -0.26700
C592        C  0.06016047  0.09738430  0.75671118    -0.14700
C593        C  0.08283938  0.09580360  0.79219187     0.35900
C594        C  0.10693928  0.13161123  0.79249777    -0.26100
C595        C  0.10858715  0.16906273  0.75818557    -0.15400
C596        C  0.08505092  0.17222457  0.72445268     0.37000
N597        N  0.08614565  0.21073945  0.68948628    -0.89600
H598        H  0.04363690  0.13856384  0.69693414     0.18100
H599        H  0.12535942  0.12828426  0.81786342     0.18100
N600        N  0.08256903  0.05625664  0.82634245    -0.88600
H601        H  0.06552820  0.23145936  0.69166962     0.35500
H602        H  0.08696637  0.19311801  0.65686632     0.40600
H603        H  0.08133337  0.07307413  0.85929128     0.40200
H604        H  0.10365206  0.03684344  0.82399296     0.35100
C605        C  0.88173365  0.12728544  0.70786539    -0.26700
C606        C  0.87599461  0.15798877  0.74656098    -0.14700
C607        C  0.89566954  0.15441115  0.78576630     0.35900
C608        C  0.91997078  0.11918525  0.78618460    -0.26100
C609        C  0.92545616  0.08760700  0.74785818    -0.15400
C610        C  0.90616140  0.09204659  0.70816383     0.37000
N611        N  0.91056362  0.05968580  0.66859402    -0.89600
H612        H  0.86655979  0.12938001  0.67794586     0.18100
H613        H  0.93470887  0.11682213  0.81657635     0.18100
N614        N  0.89085762  0.18636082  0.82551010    -0.88600
H615        H  0.91432798  0.08254823  0.63935933     0.35500
H616        H  0.89009607  0.03925841  0.66336992     0.40600
H617        H  0.91107872  0.20736255  0.83090969     0.40200
H618        H  0.88728714  0.16320688  0.85460829     0.35100
C619        C  0.90105370  0.40100417  0.76652333    -0.26700
C620        C  0.92925119  0.38470672  0.74709832    -0.14700
C621        C  0.93282087  0.33366125  0.73409833     0.35900
C622        C  0.90830478  0.29941756  0.74241697    -0.26100
C623        C  0.88020563  0.31542697  0.76295707    -0.15400
C624        C  0.87642489  0.36736881  0.77383771     0.37000
N625        N  0.84758981  0.38767702  0.79037049    -0.89600
H626        H  0.89818569  0.44044434  0.77623028     0.18100
H627        H  0.91121655  0.25991903  0.73309347     0.18100
N628        N  0.96160961  0.31652954  0.71417536    -0.88600
H629        H  0.84276399  0.37306052  0.82336643     0.35500
H630        H  0.83000501  0.37707553  0.76739078     0.40600
H631        H  0.96435612  0.33454864  0.68197791     0.40200
H632        H  0.96065615  0.27765284  0.70731274     0.35100
O633        O  0.96618844  0.93312476  0.78428020    -0.72100
O634        O  0.02658350  0.53883038  0.79078623    -0.72400
O635        O  0.96400494  0.53838348  0.78813188    -0.72200
O636        O  0.02920939  0.93751309  0.78345651    -0.72200
O637        O  0.02903473  0.94235641  0.70802375    -0.72200
O638        O  0.96385712  0.53899986  0.71254782    -0.72200
O639        O  0.02602652  0.54658484  0.71539926    -0.72100
O640        O  0.96638015  0.93546262  0.70854055    -0.72300
V641        V  0.99579941  0.98562213  0.78458781     1.35200
V642        V  0.99673845  0.49204841  0.71301114     1.35200
C643        C  0.95546314  0.91750778  0.74619986     0.77100
C644        C  0.03673936  0.56014394  0.75460104     0.77200
C645        C  0.95248761  0.55479217  0.75034385     0.77000
C646        C  0.04121755  0.92512727  0.74452147     0.77000
C647        C  0.18128968  0.72093233  0.70107348     0.86100
C648        C  0.15500520  0.68484982  0.71452194    -0.54100
C649        C  0.13740909  0.70021717  0.75083460     0.09100
C650        C  0.14654734  0.75237407  0.77000701     0.20000
C651        C  0.16395915  0.77147570  0.69134121    -0.54800
C652        C  0.14522537  0.78750445  0.72743518     0.09200
C653        C  0.19916246  0.73108131  0.74632248    -0.54400
C654        C  0.18163605  0.75022218  0.78270182     0.09700
H655        H  0.14874791  0.65150220  0.69448987     0.14200
H656        H  0.13010023  0.76376076  0.79737981     0.00000
H657        H  0.16596663  0.79165298  0.65874054     0.14600
H658        H  0.22404005  0.72587737  0.74746011     0.14300
C659        C  0.80960849  0.73223870  0.80471861     0.86100
C660        C  0.82743027  0.68450630  0.79043822    -0.54100
C661        C  0.84681635  0.69030870  0.75341391     0.09100
C662        C  0.84450980  0.74286020  0.73057776     0.20000
C663        C  0.83485953  0.77409129  0.80882429    -0.54800
C664        C  0.85300407  0.77945711  0.76972351     0.09200
C665        C  0.79160332  0.74813405  0.76107346    -0.54400
C666        C  0.80973112  0.75363419  0.72216848     0.09700
H667        H  0.82809713  0.65082285  0.81224775     0.14200
H668        H  0.85916194  0.74686410  0.69881789     0.00000
H669        H  0.83845918  0.79629194  0.84014884     0.14600
H670        H  0.76790188  0.76156430  0.76157598     0.14300
C671        C  0.68803451  0.54070725  0.79670543     0.86100
C672        C  0.67074796  0.58744838  0.77889417    -0.54100
C673        C  0.65283277  0.57927976  0.74083066     0.09100
C674        C  0.65776169  0.01620889  0.72417700     0.20000
C675        C  0.66364368  0.98558942  0.80332621    -0.54800
C676        C  0.64709957  0.98039170  0.76292790     0.09200
C677        C  0.70927218  0.00995548  0.75884002    -0.54400
C678        C  0.69269717  0.00474866  0.71867341     0.09700
H679        H  0.66896847  0.62221108  0.79908188     0.14200
H680        H  0.64462153  0.01226556  0.69117868     0.00000
H681        H  0.65869932  0.96349056  0.83439340     0.14600
H682        H  0.73344257  0.99921297  0.76040781     0.14300
O683        O  0.47186884  0.72865920  0.79718829    -0.72100
O684        O  0.53563417  0.82544774  0.78566984    -0.72400
O685        O  0.47303210  0.82952132  0.79099268    -0.72200
O686        O  0.53436050  0.72444541  0.78900893    -0.72200
O687        O  0.53346831  0.72652492  0.71338117    -0.72200
O688        O  0.46740247  0.81997284  0.71632273    -0.72200
O689        O  0.52999189  0.82750945  0.71044751    -0.72100
O690        O  0.47120098  0.71974092  0.72208119    -0.72300
V691        V  0.50366862  0.77703329  0.78933875     1.35200
V692        V  0.50055393  0.77348585  0.71696096     1.35200
C693        C  0.46057923  0.70742436  0.76190274     0.77100
C694        C  0.54388129  0.84282143  0.74667433     0.77200
C695        C  0.45883905  0.84068199  0.75372012     0.77000
C696        C  0.54514861  0.70911326  0.75019078     0.77000
C697        C  0.32227776  0.53283850  0.70714610     0.86100
C698        C  0.33669402  0.58005170  0.72976264    -0.54100
C699        C  0.35523431  0.57101036  0.76640148     0.09100
C700        C  0.35235948  0.02544208  0.78471852     0.20000
C701        C  0.34699533  0.00678761  0.70287923    -0.54800
C702        C  0.36377861  0.99584646  0.74233028     0.09200
C703        C  0.30074401  0.02408232  0.74884497    -0.54400
C704        C  0.31700579  0.01176377  0.78841509     0.09700
H705        H  0.33586739  0.61786982  0.71517352     0.14200
H706        H  0.36476894  0.01797409  0.81754806     0.00000
H707        H  0.35189969  0.98903950  0.66950261     0.14600
H708        H  0.27623489  0.01613527  0.74461300     0.14300
C709        C  0.23750456  0.85863370  0.94168607     0.01900
C710        C  0.25937989  0.89921418  0.94272365     0.01900
C711        C  0.26959674  0.91724375  0.98631499    -0.18600
C712        C  0.25801907  0.89860416  0.02922246     0.01900
C713        C  0.23636352  0.85752935  0.02821067     0.01900
C714        C  0.22697581  0.83864794  0.98468201    -0.18600
H715        H  0.21068012  0.80740467  0.98444248     0.03900
H716        H  0.28722233  0.94649303  0.98657256     0.03900
O717        O  0.03415588  0.55240799  0.28780006    -0.72100
O718        O  0.96958288  0.94597625  0.29554575    -0.72400
O719        O  0.03209703  0.94831511  0.28725250    -0.72200
O720        O  0.97186410  0.55089500  0.29795470    -0.72200
O721        O  0.96712755  0.55034212  0.22273751    -0.72200
O722        O  0.02806497  0.94567608  0.21199003    -0.72200
O723        O  0.96567243  0.94478822  0.22037365    -0.72100
O724        O  0.02937712  0.55008957  0.21251677    -0.72300
V725        V  0.00277653  0.50079059  0.29200691     1.35200
V726        V  0.99879742  0.49975242  0.21966089     1.35200
C727        C  0.04251315  0.56824938  0.24781217     0.77100
C728        C  0.95647953  0.92858368  0.25934728     0.77200
C729        C  0.04136690  0.93057010  0.24885062     0.77000
C730        C  0.95812767  0.56666590  0.26221048     0.77000
C731        C  0.18746503  0.73315469  0.27833010     0.86100
C732        C  0.20510465  0.74927124  0.23399669    -0.54100
C733        C  0.18633122  0.76309733  0.19782362     0.09100
C734        C  0.15129648  0.75684191  0.20861554     0.20000
C735        C  0.16496598  0.77821119  0.28839628    -0.54800
C736        C  0.14557664  0.79000520  0.25175991     0.09200
C737        C  0.16527030  0.69112203  0.26303106    -0.54400
C738        C  0.14635908  0.70276446  0.22717848     0.09700
H739        H  0.23019401  0.75238705  0.23234485     0.14200
H740        H  0.13624560  0.76506513  0.17833737     0.00000
H741        H  0.16382755  0.79791016  0.32144082     0.14600
H742        H  0.16140925  0.65718260  0.28375106     0.14300
C743        C  0.80788048  0.73506373  0.22909065     0.86100
C744        C  0.79260137  0.74938507  0.27548633    -0.54100
C745        C  0.81332209  0.75651601  0.31069787     0.09100
C746        C  0.84765096  0.74826976  0.29647186     0.20000
C747        C  0.83126512  0.77946120  0.22138471    -0.54800
C748        C  0.85269370  0.78580018  0.25633360     0.09200
C749        C  0.82782146  0.68868555  0.24014283    -0.54400
C750        C  0.84978439  0.69608390  0.27284774     0.09700
H751        H  0.76853884  0.75973303  0.27985882     0.14200
H752        H  0.86397229  0.75151081  0.32598959     0.00000
H753        H  0.82983620  0.80421077  0.19138828     0.14600
H754        H  0.82712841  0.65425821  0.21931533     0.14300
C755        C  0.68468529  0.50119795  0.22279992     0.86100
C756        C  0.70468876  0.49170057  0.26629775    -0.54100
C757        C  0.68934251  0.98472839  0.30732538     0.09100
C758        C  0.65392976  0.98521353  0.29893970     0.20000
C759        C  0.66696001  0.95561503  0.22115831    -0.54800
C760        C  0.64895315  0.94609947  0.26001115     0.09200
C761        C  0.66366484  0.54519085  0.23716576    -0.54400
C762        C  0.64576818  0.53705512  0.27549460     0.09700
H763        H  0.72965002  0.48763084  0.26628736     0.14200
H764        H  0.63980260  0.97928725  0.33080353     0.00000
H765        H  0.66685564  0.93089878  0.19101589     0.14600
H766        H  0.66127641  0.57904646  0.21591309     0.14300
C767        C  0.31562339  0.97686440  0.20051561     0.86100
C768        C  0.29799964  0.48669003  0.24623521    -0.54100
C769        C  0.31549753  0.49898269  0.28423040     0.09100
C770        C  0.35062162  0.49781034  0.27489803     0.20000
C771        C  0.33792439  0.52440329  0.19611748    -0.54800
C772        C  0.35548058  0.53533775  0.23507408     0.09200
C773        C  0.33880481  0.93524415  0.21275106    -0.54400
C774        C  0.35643985  0.94468298  0.25036910     0.09700
H775        H  0.27284444  0.48861252  0.24635030     0.14200
H776        H  0.36465752  0.50605411  0.30637382     0.00000
H777        H  0.34058020  0.54519083  0.16381908     0.14600
H778        H  0.34318669  0.90265566  0.19053291     0.14300
O779        O  0.53346911  0.78822880  0.30358522    -0.72100
O780        O  0.46565640  0.69385151  0.30150809    -0.72400
O781        O  0.52812052  0.68701199  0.30608220    -0.72200
O782        O  0.47116900  0.79467312  0.30209592    -0.72200
O783        O  0.47116483  0.79248839  0.22653244    -0.72200
O784        O  0.53204048  0.68769327  0.23048274    -0.72200
O785        O  0.46924801  0.69175428  0.22592441    -0.72100
O786        O  0.53334385  0.78860550  0.22807532    -0.72300
V787        V  0.49964020  0.74085670  0.30189214     1.35200
V788        V  0.50141447  0.73999803  0.22922679     1.35200
C789        C  0.54479455  0.80477351  0.26549265     0.77100
C790        C  0.45572793  0.67768279  0.26266122     0.77200
C791        C  0.54081153  0.67060093  0.26954450     0.77000
C792        C  0.46058465  0.81091467  0.26422948     0.77000
C793        C  0.74202083  0.60233197  0.97343591     0.01900
C794        C  0.75561856  0.65093542  0.97580151     0.01900
C795        C  0.76063669  0.67250801  0.01961821    -0.18600
C796        C  0.75502952  0.64584452  0.06133832     0.01900
C797        C  0.74096250  0.59708220  0.05888278     0.01900
C798        C  0.73490357  0.57633305  0.01468895    -0.18600
H799        H  0.72356610  0.53973270  0.01224953     0.03900
H800        H  0.77013252  0.71052111  0.02115380     0.03900
C801        C  0.24119008  0.63890148  0.53263379     0.01900
C802        C  0.26227269  0.59760089  0.53260587     0.01900
C803        C  0.27268509  0.57789811  0.49006361    -0.18600
C804        C  0.26390604  0.59897652  0.44714002     0.01900
C805        C  0.24297964  0.64106585  0.44601466     0.01900
C806        C  0.23075795  0.65791732  0.48934529    -0.18600
H807        H  0.21238539  0.68577186  0.48951941     0.03900
H808        H  0.28911346  0.54676247  0.49040579     0.03900
C809        C  0.74486199  0.90278131  0.55852436     0.01900
C810        C  0.76516998  0.86097843  0.56016838     0.01900
C811        C  0.77609507  0.83991589  0.51852565    -0.18600
C812        C  0.76626974  0.85786525  0.47498236     0.01900
C813        C  0.74559662  0.89980051  0.47315924     0.01900
C814        C  0.73565144  0.92199909  0.51520315    -0.18600
H815        H  0.71968997  0.95373313  0.51431166     0.03900
H816        H  0.79231761  0.80857019  0.52014503     0.03900
C817        C  0.26626076  0.52625226  0.39200309    -0.26700
C818        C  0.27729000  0.57435447  0.40504428    -0.14700
C819        C  0.30162124  0.59660338  0.37915911     0.35900
C820        C  0.31387088  0.57107628  0.34039744    -0.26100
C821        C  0.30220906  0.52366015  0.32645894    -0.15400
C822        C  0.27814799  0.50122466  0.35253429     0.37000
N823        N  0.26442075  0.94972516  0.33756756    -0.89600
H824        H  0.24791206  0.50852218  0.41216076     0.18100
H825        H  0.33242675  0.58878224  0.32070221     0.18100
N826        N  0.31467254  0.64447882  0.39202180    -0.88600
H827        H  0.24067581  0.95399876  0.33153860     0.35500
H828        H  0.26713871  0.92448973  0.36531647     0.40600
H829        H  0.32261864  0.64185596  0.42629249     0.40200
H830        H  0.29725137  0.67191783  0.39089232     0.35100
C831        C  0.38910379  0.88751627  0.29696252    -0.26700
C832        C  0.38552330  0.91650073  0.25673578    -0.14700
C833        C  0.40843592  0.91445060  0.22110459     0.35900
C834        C  0.43314931  0.88089057  0.22522550    -0.26100
C835        C  0.43588548  0.84948810  0.26422359    -0.15400
C836        C  0.41398262  0.85401767  0.30121760     0.37000
N837        N  0.41539751  0.82362891  0.34249938    -0.89600
H838        H  0.37171717  0.88927360  0.32435465     0.18100
H839        H  0.45010855  0.87880504  0.19725939     0.18100
N840        N  0.40746855  0.94600260  0.18044894    -0.88600
H841        H  0.43588320  0.83198491  0.36019451     0.35500
H842        H  0.41522332  0.78539253  0.33297746     0.40600
H843        H  0.40743517  0.47908046  0.18960068     0.40200
H844        H  0.38817180  0.93697275  0.16036058     0.35100
C845        C  0.40953534  0.55688682  0.25678033    -0.26700
C846        C  0.38088805  0.57350763  0.23895478    -0.14700
C847        C  0.37645403  0.62599210  0.23178549     0.35900
C848        C  0.40079010  0.65993262  0.24138048    -0.26100
C849        C  0.42930003  0.64261452  0.25891730    -0.15400
C850        C  0.43364910  0.59072931  0.26633548     0.37000
N851        N  0.46288579  0.57212856  0.28249160    -0.89600
H852        H  0.41339071  0.51712783  0.26369268     0.18100
H853        H  0.39749964  0.70003415  0.23497384     0.18100
N854        N  0.34738474  0.64599398  0.21645659    -0.88600
H855        H  0.47151349  0.54665929  0.25769596     0.35500
H856        H  0.45901030  0.55216072  0.31343723     0.40600
H857        H  0.33005399  0.63413250  0.23962655     0.40200
H858        H  0.34257852  0.63125526  0.18351230     0.35100
C859        C  0.70246051  0.91176019  0.35794125    -0.26700
C860        C  0.70394330  0.96402583  0.34991601    -0.14700
C861        C  0.72080738  0.99482631  0.38093005     0.35900
C862        C  0.73509332  0.97293450  0.41986422    -0.26100
C863        C  0.73271626  0.92060477  0.42888852    -0.15400
C864        C  0.71577757  0.89006804  0.39772301     0.37000
N865        N  0.71103027  0.83738476  0.40711326    -0.89600
H866        H  0.69092789  0.88751361  0.33305178     0.18100
H867        H  0.74779831  0.99704262  0.44364796     0.18100
N868        N  0.72001183  0.54962133  0.37247940    -0.88600
H869        H  0.71942815  0.81673793  0.37861191     0.35500
H870        H  0.68716908  0.83091611  0.40970297     0.40600
H871        H  0.69731142  0.56343599  0.37107110     0.40200
H872        H  0.73064466  0.55635732  0.34024706     0.35100
C873        C  0.73336773  0.52576494  0.17476847    -0.26700
C874        C  0.70109290  0.51547743  0.17653456    -0.14700
C875        C  0.68340039  0.52823397  0.13627692     0.35900
C876        C  0.69703017  0.55554221  0.09987260    -0.26100
C877        C  0.72851485  0.56871528  0.09997297    -0.15400
C878        C  0.74710376  0.55137946  0.13674232     0.37000
N879        N  0.77993158  0.55951427  0.13563077    -0.89600
H880        H  0.74841772  0.51573554  0.20310532     0.18100
H881        H  0.68261629  0.56673729  0.07079291     0.18100
N882        N  0.65137381  0.51477162  0.13084413    -0.88600
H883        H  0.79081976  0.52417957  0.13723468     0.35500
H884        H  0.78603211  0.57988522  0.16547016     0.40600
H885        H  0.64172271  0.03319964  0.15678455     0.40200
H886        H  0.65309138  0.97760009  0.13127074     0.35100
C887        C  0.62276593  0.62324404  0.27940923    -0.26700
C888        C  0.61850919  0.57064569  0.28395477    -0.14700
C889        C  0.58790863  0.55143238  0.28662542     0.35900
C890        C  0.56253311  0.58443601  0.28177688    -0.26100
C891        C  0.56725222  0.63609832  0.27361512    -0.15400
C892        C  0.59745815  0.65588670  0.27406370     0.37000
N893        N  0.60244531  0.70926361  0.26883177    -0.89600
H894        H  0.64600252  0.63885035  0.27787487     0.18100
H895        H  0.53913284  0.56947941  0.28326978     0.18100
N896        N  0.58229698  0.49841547  0.29208794    -0.88600
H897        H  0.61667872  0.71496534  0.23969380     0.35500
H898        H  0.61429710  0.72227422  0.29818774     0.40600
H899        H  0.59065052  0.03126695  0.18486953     0.40200
H900        H  0.56913858  0.49318364  0.32240945     0.35100
C901        C  0.60637281  0.89761755  0.22137291    -0.26700
C902        C  0.62374572  0.90679284  0.26175799    -0.14700
C903        C  0.61475859  0.88187274  0.30343216     0.35900
C904        C  0.58889723  0.84944713  0.30394879    -0.26100
C905        C  0.57125751  0.84114309  0.26383000    -0.15400
C906        C  0.58002072  0.86619527  0.22201372     0.37000
N907        N  0.56182831  0.86079272  0.18043228    -0.89600
H908        H  0.61237912  0.91716035  0.18940268     0.18100
H909        H  0.58281572  0.83024062  0.33609346     0.18100
N910        N  0.63203608  0.88808848  0.34540830    -0.88600
H911        H  0.57181848  0.88074752  0.15268588     0.35500
H912        H  0.54028762  0.87767315  0.18686674     0.40600
H913        H  0.63958379  0.85233502  0.35616927     0.40200
H914        H  0.61706246  0.90219689  0.37108953     0.35100
C915        C  0.78873468  0.75434352  0.38877669    -0.26700
C916        C  0.80357290  0.78244274  0.35394188    -0.14700
C917        C  0.80530952  0.83559560  0.35797608     0.35900
C918        C  0.79323041  0.85964877  0.39767680    -0.26100
C919        C  0.77838336  0.83164030  0.43277759    -0.15400
C920        C  0.77587945  0.77835431  0.42806676     0.37000
N921        N  0.75966635  0.74902130  0.46270144    -0.89600
H922        H  0.78650487  0.71369094  0.38465675     0.18100
H923        H  0.79525593  0.90041870  0.40090312     0.18100
N924        N  0.81821170  0.86549624  0.32105896    -0.88600
H925        H  0.75983101  0.71057215  0.45392699     0.35500
H926        H  0.73646833  0.76047847  0.46268508     0.40600
H927        H  0.83583609  0.88796413  0.33501442     0.40200
H928        H  0.80089478  0.88981004  0.30897519     0.35100
C929        C  0.80664575  0.71752389  0.14460890    -0.26700
C930        C  0.78877345  0.72194099  0.18560264    -0.14700
C931        C  0.75855332  0.69950252  0.18528466     0.35900
C932        C  0.74740369  0.67604511  0.14453518    -0.26100
C933        C  0.76639635  0.67012794  0.10505051    -0.15400
C934        C  0.79666524  0.69007328  0.10623355     0.37000
N935        N  0.81826172  0.68044556  0.06918961    -0.89600
H936        H  0.83029040  0.73122973  0.14355761     0.18100
H937        H  0.72397433  0.66126453  0.14427011     0.18100
N938        N  0.73864954  0.69830505  0.22523460    -0.88600
H939        H  0.83722736  0.66095457  0.08295370     0.35500
H940        H  0.82622632  0.71534591  0.05669391     0.40600
H941        H  0.73228909  0.73530986  0.23381008     0.40200
H942        H  0.75007492  0.68050422  0.25274223     0.35100
C943        C  0.21355212  0.74237697  0.35898905    -0.26700
C944        C  0.20810857  0.71371623  0.31853701    -0.14700
C945        C  0.21945904  0.66330975  0.31809414     0.35900
C946        C  0.22859283  0.63988747  0.35972880    -0.26100
C947        C  0.23277783  0.66738850  0.40124105    -0.15400
C948        C  0.22711313  0.72047105  0.39900152     0.37000
N949        N  0.23555167  0.75288117  0.43680892    -0.89600
H950        H  0.20793147  0.78228118  0.35968403     0.18100
H951        H  0.23153467  0.59948869  0.35877899     0.18100
N952        N  0.22071298  0.63481969  0.27555566    -0.88600
H953        H  0.21568290  0.77238854  0.44768288     0.35500
H954        H  0.25146811  0.77954806  0.42427937     0.40600
H955        H  0.24373274  0.62386308  0.26992063     0.40200
H956        H  0.20751051  0.60189629  0.27985717     0.35100
C957        C  0.11195844  0.85347295  0.21126569    -0.26700
C958        C  0.11963093  0.82779023  0.25269623    -0.14700
C959        C  0.10052274  0.83506346  0.29221474     0.35900
C960        C  0.07509545  0.86824842  0.28985105    -0.26100
C961        C  0.06760718  0.89397186  0.24842786    -0.15400
C962        C  0.08635524  0.88621315  0.20877988     0.37000
N963        N  0.07995723  0.91215172  0.16607494    -0.89600
H964        H  0.12584293  0.84830007  0.18016101     0.18100
H965        H  0.06082715  0.87329179  0.32070868     0.18100
N966        N  0.10588221  0.80743147  0.33432800    -0.88600
H967        H  0.07661854  0.88497896  0.14005789     0.35500
H968        H  0.10202721  0.43489892  0.16097091     0.40600
H969        H  0.08595268  0.78640717  0.34203956     0.40200
H970        H  0.10918008  0.83355353  0.36124634     0.35100
C971        C  0.08910340  0.59783122  0.20455306    -0.26700
C972        C  0.06757190  0.60587549  0.24088256    -0.14700
C973        C  0.06985562  0.64996520  0.26827982     0.35900
C974        C  0.09429768  0.68413588  0.25983793    -0.26100
C975        C  0.11665649  0.67474340  0.22501250    -0.15400
C976        C  0.11392272  0.63145613  0.19688208     0.37000
N977        N  0.13726653  0.62057695  0.16237336    -0.89600
H978        H  0.08721945  0.56407556  0.18323377     0.18100
H979        H  0.09699317  0.71681024  0.28223564     0.18100
N980        N  0.04760754  0.65963317  0.30467991    -0.88600
H981        H  0.13216355  0.58678060  0.14501038     0.35500
H982        H  0.13652041  0.64942848  0.13745159     0.40600
H983        H  0.02601109  0.66472264  0.28897030     0.40200
H984        H  0.05277892  0.69355598  0.32179939     0.35100
C985        C  0.92304850  0.63093869  0.22816101    -0.26700
C986        C  0.93162974  0.60212401  0.26679389    -0.14700
C987        C  0.91390937  0.60608602  0.30839911     0.35900
C988        C  0.88787951  0.63816330  0.31014071    -0.26100
C989        C  0.87877643  0.66562907  0.27087111    -0.15400
C990        C  0.89702310  0.66220529  0.22951403     0.37000
N991        N  0.89013916  0.69025443  0.18819447    -0.89600
H992        H  0.93649415  0.62876811  0.19619190     0.18100
H993        H  0.87416984  0.64034510  0.34185138     0.18100
N994        N  0.92148459  0.57628383  0.34844984    -0.88600
H995        H  0.86927014  0.67756169  0.17428559     0.35500
H996        H  0.88848016  0.72848255  0.19680081     0.40600
H997        H  0.92522526  0.60090269  0.37641287     0.40200
H998        H  0.90235642  0.55353538  0.35660707     0.35100
C999        C  0.91846100  0.87443465  0.21761140    -0.26700
C1000       C  0.93037334  0.89140276  0.26050299    -0.14700
C1001       C  0.91600766  0.87406941  0.30191781     0.35900
C1002       C  0.89068019  0.84087152  0.29937737    -0.26100
C1003       C  0.87876206  0.82374528  0.25641819    -0.15400
C1004       C  0.89322024  0.84109827  0.21508467     0.37000
N1005       N  0.88318717  0.82431429  0.17017237    -0.89600
H1006       H  0.92886361  0.88691112  0.18513228     0.18100
H1007       H  0.88005072  0.82934202  0.33186805     0.18100
N1008       N  0.92622264  0.88956345  0.34712819    -0.88600
H1009       H  0.90198249  0.80720906  0.15320904     0.35500
H1010       H  0.87673991  0.85615270  0.15084350     0.40600
H1011       H  0.92438244  0.92895665  0.34960887     0.40200
H1012       H  0.94938805  0.87884520  0.35111171     0.35100
C1013       C  0.21133538  0.75812136  0.11916735    -0.26700
C1014       C  0.19858652  0.78829534  0.15464197    -0.14700
C1015       C  0.19851413  0.84179315  0.14853300     0.35900
C1016       C  0.20905791  0.86289832  0.10628817    -0.26100
C1017       C  0.22262009  0.83294928  0.07120611    -0.15400
C1018       C  0.22400012  0.77974594  0.07821340     0.37000
N1019       N  0.23893300  0.74786954  0.04421645    -0.89600
H1020       H  0.21206889  0.71742042  0.12398006     0.18100
H1021       H  0.20816042  0.90364037  0.10186006     0.18100
N1022       N  0.19005982  0.87634237  0.18515425    -0.88600
H1023       H  0.23796859  0.70988404  0.05443879     0.35500
H1024       H  0.26239180  0.75784873  0.04317110     0.40600
H1025       H  0.18437183  0.85763655  0.21594564     0.40200
H1026       H  0.17067540  0.89688152  0.17439237     0.35100
C1027       C  0.27741427  0.88905105  0.11125811    -0.26700
C1028       C  0.27042455  0.92104761  0.07387159    -0.14700
C1029       C  0.27522144  0.97395281  0.08003301     0.35900
C1030       C  0.28957062  0.99207091  0.12111429    -0.26100
C1031       C  0.29589369  0.95952806  0.15872715    -0.15400
C1032       C  0.28583043  0.90812972  0.15468733     0.37000
N1033       N  0.28344353  0.87385386  0.19356112    -0.89600
H1034       H  0.27494035  0.84847664  0.10782909     0.18100
H1035       H  0.29487875  0.03197365  0.12409231     0.18100
N1036       N  0.26544530  0.00916690  0.04485626    -0.88600
H1037       H  0.28601114  0.89183838  0.22560329     0.35500
H1038       H  0.30048222  0.84592475  0.19007963     0.40600
H1039       H  0.27052527  0.04636459  0.05476152     0.40200
H1040       H  0.24130471  0.00668374  0.04252000     0.35100
C1041       C  0.27084364  0.99025532  0.83997281    -0.26700
C1042       C  0.30230193  0.98224625  0.82804719    -0.14700
C1043       C  0.31861926  0.94427224  0.85272411     0.35900
C1044       C  0.30406740  0.91773371  0.88940897    -0.26100
C1045       C  0.27260477  0.92501909  0.90045687    -0.15400
C1046       C  0.25597837  0.96211788  0.87539327     0.37000
N1047       N  0.22426194  0.97324395  0.88628555    -0.89600
H1048       H  0.25720699  0.50749578  0.81785180     0.18100
H1049       H  0.31732146  0.89003748  0.90880518     0.18100
N1050       N  0.34959858  0.93067312  0.83970307    -0.88600
H1051       H  0.22134997  0.50284665  0.89206004     0.35500
H1052       H  0.21122315  0.94027080  0.88170162     0.40600
H1053       H  0.34977730  0.89230516  0.83062553     0.40200
H1054       H  0.36384289  0.93541588  0.86874643     0.35100
C1055       C  0.31818069  0.58767938  0.63324926    -0.26700
C1056       C  0.30696835  0.54591150  0.65960579    -0.14700
C1057       C  0.28278822  0.51705921  0.63942697     0.35900
C1058       C  0.26847150  0.53372631  0.59783137    -0.26100
C1059       C  0.27764308  0.57905667  0.57585060    -0.15400
C1060       C  0.30337730  0.60521859  0.59304309     0.37000
N1061       N  0.31456862  0.64966836  0.56925827    -0.89600
H1062       H  0.33889109  0.60752823  0.64308050     0.18100
H1063       H  0.24977713  0.51161714  0.58305017     0.18100
N1064       N  0.28183201  0.97439624  0.65780108    -0.88600
H1065       H  0.32282846  0.63836797  0.53654535     0.35500
H1066       H  0.33339634  0.66554892  0.58681460     0.40600
H1067       H  0.29031991  0.94803978  0.63370896     0.40200
H1068       H  0.25798502  0.96843446  0.66163000     0.35100
C1069       C  0.43930613  0.92586802  0.77199269    -0.26700
C1070       C  0.43365071  0.87839464  0.75278261    -0.14700
C1071       C  0.40527913  0.86959705  0.72953752     0.35900
C1072       C  0.38329465  0.90859696  0.72623986    -0.26100
C1073       C  0.38904753  0.95691312  0.74488609    -0.15400
C1074       C  0.41797622  0.96525259  0.76759581     0.37000
N1075       N  0.42817747  0.01375757  0.78316446    -0.89600
H1076       H  0.46140420  0.93334508  0.78852407     0.18100
H1077       H  0.36136161  0.90085360  0.70939762     0.18100
N1078       N  0.39780311  0.82111131  0.71014448    -0.88600
H1079       H  0.41382996  0.02739025  0.80947224     0.35500
H1080       H  0.42889151  0.03795555  0.75457081     0.40600
H1081       H  0.39969197  0.79383871  0.73639770     0.40200
H1082       H  0.41376199  0.81263993  0.68376948     0.35100
C1083       C  0.42962890  0.63833381  0.72862372    -0.26700
C1084       C  0.43531281  0.66963984  0.76667351    -0.14700
C1085       C  0.41613606  0.66535203  0.80691654     0.35900
C1086       C  0.39078195  0.63142039  0.80669083    -0.26100
C1087       C  0.38453184  0.60132961  0.76765398    -0.15400
C1088       C  0.40512471  0.60432395  0.72847884     0.37000
N1089       N  0.40332440  0.57190112  0.68857926    -0.89600
H1090       H  0.44463381  0.63992929  0.69820743     0.18100
H1091       H  0.37540199  0.62931387  0.83661623     0.18100
N1092       N  0.42159673  0.69654860  0.84710624    -0.88600
H1093       H  0.38223040  0.57617067  0.67180157     0.35500
H1094       H  0.40686658  0.53447184  0.69856628     0.40600
H1095       H  0.44223268  0.68416454  0.86227599     0.40200
H1096       H  0.40424772  0.69096374  0.87218332     0.35100
C1097       C  0.69766017  0.58406154  0.92312957    -0.26700
C1098       C  0.72969875  0.58167337  0.92943826    -0.14700
C1099       C  0.74858943  0.56103833  0.89395727     0.35900
C1100       C  0.73525100  0.54671539  0.85146745    -0.26100
C1101       C  0.70305764  0.55160649  0.84387310    -0.15400
C1102       C  0.68419270  0.56903512  0.88127181     0.37000
N1103       N  0.65118545  0.57279926  0.87651352    -0.89600
H1104       H  0.68296140  0.59898067  0.95068337     0.18100
H1105       H  0.75261215  0.01746285  0.82671967     0.18100
N1106       N  0.78116135  0.55338445  0.90040383    -0.88600
H1107       H  0.64473733  0.61050211  0.88218624     0.35500
H1108       H  0.64083419  0.55063036  0.90247017     0.40600
H1109       H  0.78420932  0.53070311  0.92988190     0.40200
H1110       H  0.79528727  0.07776403  0.90383495     0.35100
C1111       C  0.69335313  0.93397129  0.66190824    -0.26700
C1112       C  0.70608995  0.98008320  0.67684943    -0.14700
C1113       C  0.73192640  0.00049477  0.65282648     0.35900
C1114       C  0.74474409  0.97401355  0.61508621    -0.26100
C1115       C  0.73245817  0.92729527  0.60099740    -0.15400
C1116       C  0.70634051  0.90748267  0.62418984     0.37000
N1117       N  0.69258282  0.86105245  0.60884558    -0.89600
H1118       H  0.67340737  0.91817469  0.67986004     0.18100
H1119       H  0.76415347  0.99029346  0.59617894     0.18100
N1120       N  0.74476264  0.04884242  0.66473339    -0.88600
H1121       H  0.66957418  0.86851021  0.59984018     0.35500
H1122       H  0.69237017  0.83585613  0.63695190     0.40600
H1123       H  0.75341309  0.04729441  0.69859691     0.40200
H1124       H  0.72703526  0.07583212  0.66366076     0.35100
C1125       C  0.60117553  0.60091816  0.77409931    -0.26700
C1126       C  0.62335518  0.60816761  0.73852279    -0.14700
C1127       C  0.61906005  0.64743226  0.70613471     0.35900
C1128       C  0.59303628  0.67898039  0.71007111    -0.26100
C1129       C  0.57142315  0.67306110  0.74670973    -0.15400
C1130       C  0.57532469  0.63309466  0.77867832     0.37000
N1131       N  0.55313610  0.62534515  0.81555702    -0.89600
H1132       H  0.60463616  0.57090837  0.79929603     0.18100
H1133       H  0.59027546  0.70953767  0.68522106     0.18100
N1134       N  0.64128637  0.65697451  0.66993149    -0.88600
H1135       H  0.55957573  0.59452779  0.83623970     0.35500
H1136       H  0.53200948  0.61571196  0.80018578     0.40600
H1137       H  0.64351012  0.62406266  0.64990395     0.40200
H1138       H  0.66270803  0.66448981  0.68537563     0.35100
C1139       C  0.59342276  0.96095378  0.73581373    -0.26700
C1140       C  0.62113067  0.94411524  0.75643361    -0.14700
C1141       C  0.62399496  0.89284227  0.76939320     0.35900
C1142       C  0.59855674  0.86026733  0.76398962    -0.26100
C1143       C  0.57058012  0.87747784  0.74497240    -0.15400
C1144       C  0.56792255  0.92812797  0.73032427     0.37000
N1145       N  0.53918620  0.94633414  0.71149255    -0.89600
H1146       H  0.59133463  0.00017742  0.72525509     0.18100
H1147       H  0.60040856  0.82113063  0.77510307     0.18100
N1148       N  0.65275387  0.87393584  0.78758425    -0.88600
H1149       H  0.54109228  0.98462003  0.70257209     0.35500
H1150       H  0.52239088  0.94411192  0.73784262     0.40600
H1151       H  0.66949390  0.87714531  0.76125523     0.40200
H1152       H  0.65094188  0.83535864  0.79540861     0.35100
C1153       C  0.74827168  0.68815444  0.89572952    -0.26700
C1154       C  0.76755417  0.67830396  0.93383407    -0.14700
C1155       C  0.79918662  0.69159432  0.93072780     0.35900
C1156       C  0.81069331  0.71414015  0.89005427    -0.26100
C1157       C  0.79211859  0.72127674  0.85037189    -0.15400
C1158       C  0.76038916  0.70681291  0.85346531     0.37000
N1159       N  0.74063737  0.70713596  0.81361023    -0.89600
H1160       H  0.72389888  0.67853817  0.89770944     0.18100
H1161       H  0.83529763  0.72209037  0.88800107     0.18100
N1162       N  0.82009379  0.67916625  0.96782611    -0.88600
H1163       H  0.72140746  0.72988279  0.82115565     0.35500
H1164       H  0.73276352  0.67016922  0.80791584     0.40600
H1165       H  0.82109381  0.63968315  0.97030781     0.40200
H1166       H  0.84260584  0.69150235  0.96026194     0.35100
C1167       C  0.81460016  0.82219873  0.66289448    -0.35500
C1168       C  0.79803184  0.78033069  0.68016140    -0.14700
C1169       C  0.76970195  0.76663459  0.65908325     0.35900
C1170       C  0.75873715  0.79493066  0.62102825    -0.26100
C1171       C  0.77521529  0.83700369  0.60421659    -0.15400
C1172       C  0.80343853  0.85061542  0.62540799     0.37000
N1173       N  0.82136933  0.89275973  0.60908439    -0.89600
H1174       H  0.83619529  0.83342025  0.67899337     0.18100
H1175       H  0.73767007  0.78339105  0.60358221     0.18100
N1176       N  0.75251688  0.72358911  0.67585080    -0.88600
H1177       H  0.80760946  0.92526391  0.61118997     0.35500
H1178       H  0.82710984  0.88658312  0.57410529     0.40600
H1179       H  0.76609165  0.69134295  0.67012521     0.40200
H1180       H  0.73218479  0.71872940  0.65667017     0.35100
C1181       C  0.22798345  0.79013990  0.82393117    -0.26700
C1182       C  0.19608796  0.77709433  0.82442727    -0.14700
C1183       C  0.17866961  0.79263592  0.86401724     0.35900
C1184       C  0.19213264  0.82387112  0.89805141    -0.26100
C1185       C  0.22402194  0.83522992  0.89821983    -0.15400
C1186       C  0.24214862  0.81634182  0.86103930     0.37000
N1187       N  0.27517619  0.82082859  0.86160513    -0.89600
H1188       H  0.24282353  0.77941507  0.79521785     0.18100
H1189       H  0.17758863  0.83664170  0.92665100     0.18100
N1190       N  0.14791570  0.77441546  0.87233745    -0.88600
H1191       H  0.28210667  0.83904448  0.83090536     0.35500
H1192       H  0.28461337  0.78435091  0.86118196     0.40600
H1193       H  0.13319737  0.80565044  0.87612832     0.40200
H1194       H  0.14779472  0.75444032  0.90379997     0.35100
C1195       C  0.21518857  0.73240751  0.62807931    -0.26700
C1196       C  0.20144695  0.69970996  0.66093338    -0.14700
C1197       C  0.20611795  0.64677801  0.65468932     0.35900
C1198       C  0.21710848  0.62845216  0.61170805    -0.26100
C1199       C  0.22882959  0.66109335  0.57734002    -0.15400
C1200       C  0.22947418  0.71377410  0.58740459     0.37000
N1201       N  0.24525538  0.74929587  0.55802986    -0.89600
H1202       H  0.21507393  0.77290592  0.63394545     0.18100
H1203       H  0.21672382  0.58811965  0.60531869     0.18100
N1204       N  0.20008644  0.61166124  0.69199081    -0.88600
H1205       H  0.23356483  0.75205937  0.52656244     0.35500
H1206       H  0.26779843  0.73623610  0.55190071     0.40600
H1207       H  0.21538682  0.62024502  0.71900117     0.40200
H1208       H  0.20501258  0.57451271  0.68165763     0.35100
C1209       C  0.07622611  0.87091299  0.69647994    -0.26700
C1210       C  0.06936242  0.89273365  0.74012123    -0.14700
C1211       C  0.09062985  0.88621712  0.77678901     0.35900
C1212       C  0.11714251  0.85607253  0.76955971    -0.26100
C1213       C  0.12270269  0.83078767  0.72703851    -0.15400
C1214       C  0.10244892  0.84057644  0.68939404     0.37000
N1215       N  0.10707387  0.81966562  0.64383984    -0.89600
H1216       H  0.06074697  0.87679184  0.66735601     0.18100
H1217       H  0.13314739  0.85086803  0.79809422     0.18100
N1218       N  0.08528889  0.90977315  0.82127309    -0.88600
H1219       H  0.10905029  0.78033121  0.64607973     0.35500
H1220       H  0.12731140  0.83503669  0.62958783     0.40600
H1221       H  0.08677274  0.94890533  0.81640002     0.40200
H1222       H  0.10279678  0.90015123  0.84473017     0.35100
C1223       C  0.05738309  0.64609054  0.73727285    -0.26700
C1224       C  0.06110191  0.59895251  0.75880653    -0.14700
C1225       C  0.08816067  0.58923266  0.78471030     0.35900
C1226       C  0.11197190  0.62543752  0.78591689    -0.26100
C1227       C  0.10893392  0.67161537  0.76234877    -0.15400
C1228       C  0.08100945  0.68261283  0.73919836     0.37000
N1229       N  0.07722195  0.72979704  0.71548307    -0.89600
H1230       H  0.03633237  0.65424868  0.71822829     0.18100
H1231       H  0.13364182  0.61622310  0.80290323     0.18100
N1232       N  0.09226888  0.54144850  0.80752172    -0.88600
H1233       H  0.05784554  0.74807755  0.72966865     0.35500
H1234       H  0.07254167  0.72197270  0.68050790     0.40600
H1235       H  0.09606127  0.54837776  0.84290937     0.40200
H1236       H  0.11217724  0.52429703  0.79379748     0.35100
C1237       C  0.88124659  0.62930617  0.71147715    -0.26700
C1238       C  0.87525578  0.65873293  0.75094791    -0.14700
C1239       C  0.89562850  0.65594548  0.78930703     0.35900
C1240       C  0.92062215  0.62198949  0.78851500    -0.26100
C1241       C  0.92618769  0.59113527  0.74964233    -0.15400
C1242       C  0.90644444  0.59552138  0.71043809     0.37000
N1243       N  0.91123749  0.56467549  0.66995436    -0.89600
H1244       H  0.86580786  0.63144675  0.68186803     0.18100
H1245       H  0.93581257  0.62000654  0.81841736     0.18100
N1246       N  0.89105788  0.68790120  0.82912817    -0.88600
H1247       H  0.91425261  0.58864103  0.64128163     0.35500
H1248       H  0.89119434  0.54321513  0.66452932     0.40600
H1249       H  0.91103301  0.70979638  0.83355961     0.40200
H1250       H  0.88839070  0.66480982  0.85847048     0.35100
C1251       C  0.90007922  0.90097026  0.76064046    -0.26700
C1252       C  0.92919285  0.88204171  0.74728610    -0.14700
C1253       C  0.93340515  0.82955470  0.74190884     0.35900
C1254       C  0.90820493  0.79679964  0.75019908    -0.26100
C1255       C  0.87913976  0.81560774  0.76450482    -0.15400
C1256       C  0.87503226  0.86848743  0.76904670     0.37000
N1257       N  0.84562108  0.89042404  0.78077960    -0.89600
H1258       H  0.89693118  0.94143173  0.76522428     0.18100
H1259       H  0.91132218  0.75635578  0.74589105     0.18100
N1260       N  0.96340318  0.80976685  0.72964624    -0.88600
H1261       H  0.83918393  0.87858124  0.81414247     0.35500
H1262       H  0.82910325  0.87763563  0.75698516     0.40600
H1263       H  0.96880937  0.82267388  0.69613476     0.40200
H1264       H  0.96272279  0.77021174  0.72786351     0.35100
loop_ 
_geom_bond_atom_site_label_1 
_geom_bond_atom_site_label_2 
_geom_bond_distance 
_geom_bond_site_symmetry_2 
_ccdc_geom_bond_type 
O1            V9   1.886       .  S
O1           C11   1.259       .  A
O2          V641   1.881   1_445  S
O2           C12   1.257       .  A
O3          V641   1.920   1_545  S
O3           C13   1.272       .  A
O4            V9   1.920   1_455  S
O4           C14   1.271       .  A
O5          V642   1.886   1_455  S
O5           C14   1.260       .  A
O6           V10   1.879   1_545  S
O6           C13   1.257       .  A
O7           V10   1.913   1_445  S
O7           C12   1.270       .  A
O8          V642   1.920       .  S
O8           C11   1.269       .  A
V9          O634   1.884   1_655  S
V9          O635   1.918       .  S
V9          V642   2.086       .  T
V10         O637   1.882   1_655  S
V10         O640   1.917       .  S
V10         V641   2.086       .  T
C11         C620   1.475       .  S
C12         C592   1.476       .  S
C13         C609   1.484       .  S
C14         C578   1.489       .  S
C15          C16   1.526       .  S
C15          C21   1.538       .  S
C15          C19   1.558       .  S
C15         C564   1.544       .  S
C16          H23   1.087       .  S
C16          C17   1.349       .  D
C17          C18   1.535       .  S
C17         C595   1.476       .  S
C18          C22   1.561       .  S
C18          C20   1.533       .  S
C18          H24   1.097       .  S
C19          H25   1.082       .  S
C19          C20   1.376       .  D
C20         C581   1.498       .  S
C21          H26   1.082       .  S
C21          C22   1.383       .  D
C22         C550   1.532       .  S
C27          C28   1.528       .  S
C27          C33   1.538       .  S
C27          C31   1.557       .  S
C27         C525   1.538       .  S
C28          H35   1.089       .  S
C28          C29   1.354       .  D
C29          C30   1.541       .  S
C29         C606   1.485       .  S
C30          C34   1.549       .  S
C30          C32   1.528       .  S
C30          H36   1.111       .  S
C31          H37   1.084       .  S
C31          C32   1.373       .  D
C32         C623   1.490       .  S
C33          H38   1.081       .  S
C33          C34   1.370       .  D
C34         C536   1.491       .  S
C39          C40   1.533       .  S
C39         C677   1.538       .  S
C39         C675   1.549   1_545  S
C39         C469   1.534       .  S
C40          H47   1.088       .  S
C40          C41   1.358       .  D
C41         C674   1.537       .  S
C41         C494   1.477       .  S
C42          C46   1.550       .  S
C42          C44   1.531       .  S
C42         C673   1.544       .  S
C42          H48   1.110       .  S
C43         C671   1.544       .  S
C43          H49   1.086       .  S
C43          C44   1.368       .  D
C44         C508   1.486       .  S
C45         C671   1.539       .  S
C45          H50   1.081       .  S
C45          C46   1.368       .  D
C46         C480   1.490       .  S
O51          V59   1.889       .  S
O51          C61   1.258       .  A
O52          V59   1.885       .  S
O52          C62   1.260       .  A
O53          V59   1.912       .  S
O53          C63   1.270       .  A
O54          V59   1.911       .  S
O54          C64   1.269       .  A
O55          V60   1.887       .  S
O55          C64   1.260       .  A
O56          V60   1.882       .  S
O56          C63   1.258       .  A
O57          V60   1.913       .  S
O57          C62   1.267       .  A
O58          V60   1.902       .  S
O58          C61   1.271       .  A
V59          V60   2.085       .  T
C61         C452   1.483       .  S
C62         C511   1.471       .  S
C63         C438   1.475       .  S
C64         C497   1.477       .  S
C65          C66   1.540       .  S
C65         C703   1.533       .  S
C65         C701   1.560       .  S
C65         C424   1.553       .  S
C66          H73   1.078       .  S
C66          C67   1.345       .  D
C67         C700   1.547       .  S
C67         C455   1.502       .  S
C68          C72   1.562       .  S
C68          C70   1.526       .  S
C68         C699   1.544       .  S
C68          H74   1.096       .  S
C69         C697   1.560       .  S
C69          H75   1.085       .  S
C69          C70   1.385       .  D
C70         C441   1.509       .  S
C71         C697   1.539       .  S
C71          H76   1.083       .  S
C71          C72   1.377       .  D
C72         C410   1.516       .  S
C77         C553   1.515       .  S
C77          C78   1.427       .  A
C77          C82   1.413       .  A
C78         C413   1.500       .  S
C78          C79   1.412       .  A
C79          C80   1.415   1_556  A
C79          H84   1.083       .  S
C80         C396   1.518       .  S
C80          C81   1.432       .  A
C81         C385   1.508       .  S
C81          C82   1.409   1_554  A
C82          H83   1.083       .  S
O85          V93   1.920   1_545  S
O85          C95   1.271       .  A
O86         V725   1.923   1_655  S
O86          C96   1.271       .  A
O87         V725   1.891       .  S
O87          C97   1.261       .  A
O88          V93   1.882   1_645  S
O88          C98   1.257       .  A
O89          V94   1.915   1_545  S
O89          C98   1.272       .  A
O90         V726   1.915   1_455  S
O90          C97   1.270       .  A
O91         V726   1.881       .  S
O91          C96   1.260       .  A
O92          V94   1.879   1_445  S
O92          C95   1.257       .  A
V93         O718   1.921   1_455  S
V93         O719   1.886       .  S
V93          V94   2.084   1_455  T
V94         O722   1.918   1_655  S
V94         O723   1.879       .  S
C95         C340   1.478       .  S
C96         C368   1.495       .  S
C97         C329   1.489       .  S
C98         C354   1.483       .  S
C99         C100   1.535       .  S
C99         C105   1.530       .  S
C99         C103   1.562       .  S
C99         C312   1.546       .  S
C100        H107   1.086       .  S
C100        C101   1.367       .  D
C101        C102   1.548       .  S
C101        C382   1.494       .  S
C102        C106   1.537       .  S
C102        C104   1.535       .  S
C102        H108   1.109       .  S
C103        H109   1.083       .  S
C103        C104   1.382       .  D
C104        C326   1.500       .  S
C105        H110   1.088       .  S
C105        C106   1.353       .  D
C106        C343   1.478       .  S
C111        C112   1.534       .  S
C111        C117   1.528       .  S
C111        C115   1.561       .  S
C111        C298   1.543       .  S
C112        H119   1.080       .  S
C112        C113   1.368       .  D
C113        C114   1.553       .  S
C113        C284   1.484       .  S
C114        C118   1.541       .  S
C114        C116   1.535       .  S
C114        H120   1.109       .  S
C115        H121   1.084       .  S
C115        C116   1.377       .  D
C116        C371   1.505       .  S
C117        H122   1.088       .  S
C117        C118   1.351       .  D
C118        C357   1.489       .  S
C123        C124   1.542   1_545  S
C123        C129   1.533       .  S
C123        C759   1.553   1_545  S
C123        C242   1.548       .  S
C124        H131   1.082       .  S
C124        C757   1.365       .  D
C125        C126   1.546       .  S
C125        C756   1.365       .  D
C125        C228   1.480       .  S
C126        C128   1.536       .  S
C126        C762   1.541       .  S
C126        H132   1.108       .  S
C127        C755   1.553       .  S
C127        H133   1.084       .  S
C127        C128   1.379       .  D
C128        C270   1.500       .  S
C129        H134   1.087       .  S
C129        C130   1.355       .  D
C130        C758   1.536   1_545  S
C130        C256   1.482       .  S
C135        C141   1.529       .  S
C135        C768   1.538       .  S
C135        C771   1.570       .  S
C135        C399   1.548       .  S
C136        C767   1.535       .  S
C136        H143   1.086       .  S
C136        C137   1.365       .  D
C137        C138   1.535       .  S
C137        C189   1.484   1_565  S
C138        C140   1.529   1_565  S
C138        C774   1.529       .  S
C138        H144   1.111   1_565  S
C139        C767   1.571   1_545  S
C139        H145   1.082       .  S
C139        C140   1.389       .  D
C140        C214   1.502       .  S
C141        H146   1.086       .  S
C141        C142   1.350       .  D
C142        C770   1.531       .  S
C142        C200   1.474       .  S
O147        V155   1.927       .  S
O147        C157   1.273       .  A
O148        V155   1.929       .  S
O148        C158   1.273       .  A
O149        V155   1.887       .  S
O149        C159   1.259       .  A
O150        V155   1.885       .  S
O150        C160   1.258       .  A
O151        V156   1.903       .  S
O151        C160   1.269       .  A
O152        V156   1.913       .  S
O152        C159   1.270       .  A
O153        V156   1.881       .  S
O153        C158   1.256       .  A
O154        V156   1.876       .  S
O154        C157   1.257       .  A
V155        V156   2.084       .  T
C157        C273   1.487       .  S
C158        C217   1.478       .  S
C159        C259   1.478       .  S
C160        C203   1.480       .  S
C161        C466   1.482       .  S
C161        C162   1.411       .  A
C161        C166   1.401   1_556  A
C162        C522   1.489       .  S
C162        C163   1.400   1_556  A
C163        C164   1.409       .  A
C163        H168   1.084       .  S
C164        C301   1.502       .  S
C164        C165   1.427       .  A
C165        C245   1.493       .  S
C165        C166   1.410       .  A
C166        H167   1.085       .  S
C169        C567   1.510       .  S
C169        C170   1.423       .  A
C169        C174   1.412       .  A
C170        C427   1.489       .  S
C170        C171   1.400       .  A
C171        C172   1.404       .  A
C171        H176   1.085       .  S
C172        C186   1.484       .  S
C172        C173   1.426       .  A
C173        C315   1.514       .  S
C173        C174   1.414       .  A
C174        H175   1.080       .  S
C177        C483   1.487       .  S
C177        C178   1.413       .  A
C177        C182   1.404       .  A
C178        C539   1.482       .  S
C178        C179   1.402       .  A
C179        C180   1.406       .  A
C179        H184   1.084       .  S
C180        C287   1.497       .  S
C180        C181   1.425       .  A
C181        C231   1.495       .  S
C181        C182   1.409       .  A
C182        H183   1.085       .  S
C185        C186   1.407       .  A
C185        C190   1.406   1_545  A
C185        H192   1.084       .  S
C186        C187   1.410       .  A
C187        C188   1.399       .  A
C187        N194   1.432       .  S
C188        C189   1.406       .  A
C188        H193   1.083       .  S
C189        C190   1.406   1_545  A
C190        N823   1.432       .  S
N191        C822   1.432       .  S
N191        H195   1.046       .  S
N191        H196   1.046       .  S
N194        H197   1.046       .  S
N194        H198   1.045       .  S
C199        C200   1.396       .  A
C199        C204   1.399       .  A
C199        H206   1.084       .  S
C200        C201   1.418       .  A
C201        C202   1.391       .  A
C201        N208   1.435       .  S
C202        C203   1.400       .  A
C202        H207   1.084       .  S
C203        C204   1.423       .  A
C204        N205   1.432       .  S
N205        H209   1.045       .  S
N205        H210   1.045       .  S
N208        H212   1.042       .  S
N208        H843   1.043       .  S
H211        N840   1.043       .  S
C213        C214   1.414       .  A
C213        C218   1.402       .  A
C213        H220   1.082       .  S
C214        C215   1.415       .  A
C215        C216   1.408       .  A
C215        N222   1.431       .  S
C216        C217   1.409       .  A
C216        H221   1.084       .  S
C217        C218   1.399       .  A
C218        N219   1.432       .  S
N219        H223   1.046       .  S
N219        H224   1.046       .  S
N222        H225   1.046       .  S
N222        H226   1.043       .  S
C227        C228   1.400       .  A
C227        C232   1.403       .  A
C227        H234   1.082       .  S
C228        C229   1.408       .  A
C229        C230   1.403       .  A
C229        N868   1.432       .  S
C230        C231   1.410       .  A
C230        H235   1.084       .  S
C231        C232   1.411       .  A
C232        N233   1.432       .  S
N233        H237   1.046       .  S
N233        H238   1.045       .  S
N236        C861   1.432   1_545  S
N236        H239   1.046       .  S
N236        H240   1.045       .  S
C241        C242   1.419       .  A
C241        C246   1.412       .  A
C241        H248   1.076       .  S
C242        C243   1.428       .  A
C243        C244   1.394       .  A
C243        N250   1.434       .  S
C244        C245   1.400       .  A
C244        H249   1.085       .  S
C245        C246   1.405       .  A
C246        N247   1.432       .  S
N247        H251   1.045       .  S
N247        H252   1.046       .  S
N250        H885   1.039       .  S
N250        H886   1.042   1_545  S
H253        N882   1.042       .  S
H254        N882   1.043       .  S
C255        C256   1.398       .  A
C255        C260   1.406       .  A
C255        H262   1.084       .  S
C256        C257   1.412       .  A
C257        C258   1.402       .  A
C257        N264   1.430       .  S
C258        C259   1.398       .  A
C258        H263   1.084       .  S
C259        C260   1.415       .  A
C260        N261   1.433       .  S
N261        H265   1.046       .  S
N261        H266   1.046       .  S
N264        H268   1.045   1_545  S
N264        H899   1.045       .  S
H267        N896   1.046       .  S
C269        C270   1.402       .  A
C269        C274   1.405       .  A
C269        H276   1.083       .  S
C270        C271   1.419       .  A
C271        C272   1.407       .  A
C271        N278   1.429       .  S
C272        C273   1.399       .  A
C272        H277   1.084       .  S
C273        C274   1.418       .  A
C274        N275   1.439       .  S
N275        H279   1.046       .  S
N275        H280   1.046       .  S
N278        H281   1.046       .  S
N278        H282   1.046       .  S
C283        C284   1.399       .  A
C283        C288   1.406       .  A
C283        H290   1.084       .  S
C284        C285   1.410       .  A
C285        C286   1.405       .  A
C285        N292   1.431       .  S
C286        C287   1.404       .  A
C286        H291   1.083       .  S
C287        C288   1.416       .  A
C288        N289   1.433       .  S
N289        H293   1.046       .  S
N289        H294   1.046       .  S
N292        H295   1.045       .  S
N292        H296   1.046       .  S
C297        C298   1.409       .  A
C297        C302   1.393       .  A
C297        H304   1.082       .  S
C298        C299   1.431       .  A
C299        C300   1.410       .  A
C299        N306   1.429       .  S
C300        C301   1.405       .  A
C300        H305   1.082       .  S
C301        C302   1.411       .  A
C302        N303   1.433       .  S
N303        H307   1.046       .  S
N303        H308   1.046       .  S
N306        H309   1.043       .  S
N306        H310   1.045       .  S
C311        C312   1.405       .  A
C311        C316   1.411       .  A
C311        H318   1.082       .  S
C312        C313   1.423       .  A
C313        C314   1.407       .  A
C313        N320   1.439       .  S
C314        C315   1.404       .  A
C314        H319   1.076       .  S
C315        C316   1.418       .  A
C316        N317   1.430       .  S
N317        H321   1.045       .  S
N317        H322   1.045       .  S
N320        H323   1.045       .  S
N320        H324   1.046       .  S
C325        C326   1.409       .  A
C325        C330   1.404       .  A
C325        H332   1.081       .  S
C326        C327   1.412       .  A
C327        C328   1.407       .  A
C327        N334   1.432       .  S
C328        C329   1.408       .  A
C328        H333   1.084       .  S
C329        C330   1.408       .  A
C330        N331   1.432       .  S
N331        H335   1.046       .  S
N331        H968   1.046       .  S
N334        H337   1.046       .  S
N334        H338   1.045       .  S
H336        N963   1.046       .  S
C339        C340   1.408       .  A
C339        C344   1.406       .  A
C339        H346   1.084       .  S
C340        C341   1.407       .  A
C341        C342   1.406       .  A
C341        N348   1.437       .  S
C342        C343   1.407       .  A
C342        H347   1.082       .  S
C343        C344   1.403       .  A
C344        N345   1.437       .  S
N345        H349   1.046       .  S
N345        H350   1.046       .  S
N348        H351   1.046       .  S
N348        H352   1.046       .  S
C353        C354   1.396       .  A
C353        C358   1.393       .  A
C353        H360   1.084       .  S
C354        C355   1.421       .  A
C355        C356   1.410       .  A
C355        N362   1.438       .  S
C356        C357   1.398       .  A
C356        H361   1.084       .  S
C357        C358   1.423       .  A
C358        N359   1.430       .  S
N359        H363   1.042       .  S
N359        H364   1.041       .  S
N362        H365   1.046       .  S
N362        H366   1.046       .  S
C367        C368   1.409       .  A
C367        C372   1.403       .  A
C367        H374   1.084       .  S
C368        C369   1.415       .  A
C369        C370   1.404       .  A
C369        N376   1.432       .  S
C370        C371   1.411       .  A
C370        H375   1.082       .  S
C371        C372   1.413       .  A
C372        N373   1.432       .  S
N373        H377   1.046       .  S
N373        H378   1.046       .  S
N376        H379   1.046       .  S
N376        H380   1.045       .  S
C381        C382   1.400       .  A
C381        C386   1.411       .  A
C381        H388   1.084       .  S
C382        C383   1.422       .  A
C383        C384   1.407       .  A
C383        N390   1.437       .  S
C384        C385   1.405       .  A
C384        H389   1.084       .  S
C385        C386   1.420       .  A
C386        N387   1.438       .  S
N387        H391   1.046       .  S
N387        H392   1.046       .  S
N390        H393   1.041       .  S
N390        H394   1.045       .  S
C395        C396   1.402       .  A
C395        C400   1.399       .  A
C395        H402   1.081       .  S
C396        C397   1.424       .  A
C397        C398   1.417       .  A
C397        N404   1.438       .  S
C398        C399   1.408       .  A
C398        H403   1.081       .  S
C399        C400   1.430       .  A
C400        N401   1.439       .  S
N401        H405   1.041       .  S
N401        H406   1.045       .  S
N404        H407   1.045       .  S
N404        H408   1.045       .  S
C409        C410   1.412       .  A
C409        C414   1.413       .  A
C409       H1048   1.083       .  S
C410        C411   1.418       .  A
C411        C412   1.407       .  A
C411        N418   1.431       .  S
C412        C413   1.404       .  A
C412        H417   1.084       .  S
C413        C414   1.419       .  A
C414        N415   1.438       .  S
N415        H420   1.043       .  S
N415       H1051   1.046       .  S
H416       C1041   1.083   1_545  S
N418        H421   1.046       .  S
N418        H422   1.046       .  S
H419       N1047   1.046       .  S
C423        C424   1.422       .  A
C423        C428   1.396       .  A
C423        H430   1.071       .  S
C424        C425   1.417       .  A
C425        C426   1.415       .  A
C425       N1064   1.431   1_545  S
C426        C427   1.406       .  A
C426        H431   1.083       .  S
C427        C428   1.396       .  A
C428        N429   1.434       .  S
N429        H433   1.046       .  S
N429        H434   1.046       .  S
N432       C1057   1.431       .  S
N432        H435   1.045       .  S
N432        H436   1.046       .  S
C437        C438   1.390       .  A
C437        C442   1.395       .  A
C437        H444   1.085       .  S
C438        C439   1.415       .  A
C439        C440   1.401       .  A
C439        N446   1.433       .  S
C440        C441   1.407       .  A
C440        H445   1.083       .  S
C441        C442   1.435       .  A
C442        N443   1.428       .  S
N443        H447   1.038       .  S
N443        H448   1.037       .  S
N446        H449   1.046       .  S
N446        H450   1.044       .  S
C451        C452   1.392       .  A
C451        C456   1.386       .  A
C451        H458   1.084       .  S
C452        C453   1.418       .  A
C453        C454   1.412       .  A
C453        N460   1.432       .  S
C454        C455   1.402       .  A
C454        H459   1.084       .  S
C455        C456   1.434       .  A
C456        N457   1.432       .  S
N457        H461   1.039       .  S
N457        H462   1.041       .  S
N460        H463   1.046       .  S
N460        H464   1.046       .  S
C465        C466   1.398       .  A
C465        C470   1.397       .  A
C465        H472   1.084       .  S
C466        C467   1.411       .  A
C467        C468   1.404       .  A
C467        N474   1.432       .  S
C468        C469   1.414       .  A
C468       H1105   1.077       .  S
C469        C470   1.418       .  A
C470        N471   1.434       .  S
N471        H475   1.046       .  S
N471        H476   1.045       .  S
H473       C1100   1.077       .  S
N474        H477   1.045       .  S
N474       H1110   1.042       .  S
H478       N1106   1.042       .  S
C479        C480   1.404       .  A
C479        C484   1.406       .  A
C479        H486   1.084       .  S
C480        C481   1.416       .  A
C481        C482   1.405       .  A
C481        N488   1.433       .  S
C482        C483   1.405       .  A
C482        H487   1.084       .  S
C483        C484   1.407       .  A
C484        N485   1.431       .  S
N485        H489   1.045       .  S
N485        H490   1.046       .  S
N488        H491   1.043       .  S
N488        H492   1.046       .  S
C493        C494   1.405       .  A
C493        C498   1.404       .  A
C493        H500   1.084       .  S
C494        C495   1.400       .  A
C495        C496   1.404       .  A
C495        N502   1.432       .  S
C496        C497   1.409       .  A
C496        H501   1.084       .  S
C497        C498   1.410       .  A
C498        N499   1.438       .  S
N499        H503   1.045       .  S
N499        H504   1.046       .  S
N502        H505   1.046       .  S
N502        H506   1.045       .  S
C507        C508   1.407       .  A
C507        C512   1.406       .  A
C507        H514   1.083       .  S
C508        C509   1.413       .  A
C509        C510   1.403       .  A
C509        N516   1.438       .  S
C510        C511   1.401       .  A
C510        H515   1.084       .  S
C511        C512   1.404       .  A
C512        N513   1.432       .  S
N513        H517   1.045       .  S
N513        H518   1.046       .  S
N516        H519   1.046       .  S
N516        H520   1.046       .  S
C521        C522   1.402       .  A
C521        C526   1.411       .  A
C521        H528   1.083       .  S
C522        C523   1.406       .  A
C523        C524   1.394       .  A
C523        N530   1.433       .  S
C524        C525   1.410       .  A
C524        H529   1.083       .  S
C525        C526   1.423       .  A
C526        N527   1.429       .  S
N527        H531   1.046       .  S
N527        H532   1.046       .  S
N530        H533   1.046       .  S
N530        H534   1.045       .  S
C535        C536   1.406       .  A
C535        C540   1.402       .  A
C535        H542   1.083       .  S
C536        C537   1.410       .  A
C537        C538   1.405       .  A
C537        N544   1.432       .  S
C538        C539   1.403       .  A
C538        H543   1.083       .  S
C539        C540   1.411       .  A
C540        N541   1.432       .  S
N541        H545   1.045       .  S
N541        H546   1.045       .  S
N544        H547   1.046       .  S
N544        H548   1.046       .  S
C549        C550   1.418       .  A
C549        C554   1.412       .  A
C549        H556   1.078       .  S
C550        C551   1.421       .  A
C551        C552   1.408       .  A
C551        N558   1.429       .  S
C552        C553   1.408       .  A
C552        H557   1.084       .  S
C553        C554   1.411       .  A
C554        N555   1.430       .  S
N555        H559   1.046       .  S
N555        H560   1.045       .  S
N558        H561   1.046       .  S
N558        H562   1.046       .  S
C563        C564   1.406       .  A
C563        C568   1.405       .  A
C563        H570   1.081       .  S
C564        C565   1.421       .  A
C565        C566   1.404       .  A
C565        N572   1.439       .  S
C566        C567   1.404       .  A
C566        H571   1.081       .  S
C567        C568   1.422       .  A
C568        N569   1.431       .  S
N569        H573   1.040       .  S
N569        H574   1.045       .  S
N572        H575   1.045       .  S
N572        H576   1.046       .  S
C577        C578   1.409       .  A
C577        C582   1.406       .  A
C577        H584   1.084       .  S
C578        C579   1.408       .  A
C579        C580   1.405       .  A
C579        N586   1.432       .  S
C580        C581   1.409       .  A
C580        H585   1.082       .  S
C581        C582   1.411       .  A
C582        N583   1.432       .  S
N583        H587   1.045       .  S
N583        H588   1.045       .  S
N586        H589   1.046       .  S
N586        H590   1.046       .  S
C591        C592   1.398       .  A
C591        C596   1.399       .  A
C591        H598   1.084       .  S
C592        C593   1.416       .  A
C593        C594   1.405       .  A
C593        N600   1.432       .  S
C594        C595   1.397       .  A
C594        H599   1.084       .  S
C595        C596   1.409       .  A
C596        N597   1.429       .  S
N597        H601   1.046       .  S
N597        H602   1.046       .  S
N600        H603   1.045       .  S
N600        H604   1.046       .  S
C605        C606   1.395       .  A
C605        C610   1.406       .  A
C605        H612   1.084       .  S
C606        C607   1.416       .  A
C607        C608   1.401       .  A
C607        N614   1.432       .  S
C608        C609   1.399       .  A
C608        H613   1.084       .  S
C609        C610   1.419       .  A
C610        N611   1.432       .  S
N611        H615   1.046       .  S
N611        H616   1.046       .  S
N614        H617   1.045       .  S
N614        H618   1.046       .  S
C619        C620   1.402       .  A
C619        C624   1.399       .  A
C619        H626   1.085       .  S
C620        C621   1.406       .  A
C621        C622   1.410       .  A
C621        N628   1.437       .  S
C622        C623   1.409       .  A
C622        H627   1.083       .  S
C623        C624   1.415       .  A
C624        N625   1.433       .  S
N625        H629   1.042       .  S
N625        H630   1.046       .  S
N628        H631   1.045       .  S
N628        H632   1.046       .  S
O633        V641   1.884       .  S
O633        C643   1.258       .  A
O634        C644   1.258       .  A
O635        C645   1.271       .  A
O636        V641   1.921   1_455  S
O636        C646   1.272       .  A
O637        C646   1.260       .  A
O638        V642   1.884       .  S
O638        C645   1.259       .  A
O639        V642   1.916   1_455  S
O639        C644   1.270       .  A
O640        C643   1.268       .  A
C643       C1252   1.470       .  S
C644       C1224   1.473       .  S
C645       C1241   1.486       .  S
C646       C1210   1.490       .  S
C647        C648   1.528       .  S
C647        C653   1.537       .  S
C647        C651   1.556       .  S
C647       C1196   1.544       .  S
C648        H655   1.086       .  S
C648        C649   1.348       .  D
C649        C650   1.535       .  S
C649       C1227   1.477       .  S
C650        C654   1.559       .  S
C650        C652   1.535       .  S
C650        H656   1.097       .  S
C651        H657   1.080       .  S
C651        C652   1.377       .  D
C652       C1213   1.500       .  S
C653        H658   1.082       .  S
C653        C654   1.381       .  D
C654       C1182   1.527       .  S
C659        C660   1.531       .  S
C659        C665   1.536       .  S
C659        C663   1.556       .  S
C659       C1157   1.536       .  S
C660        H667   1.088       .  S
C660        C661   1.357       .  D
C661        C662   1.538       .  S
C661       C1238   1.484       .  S
C662        C666   1.547       .  S
C662        C664   1.527       .  S
C662        H668   1.111       .  S
C663        H669   1.085       .  S
C663        C664   1.372       .  D
C664       C1255   1.484       .  S
C665        H670   1.082       .  S
C665        C666   1.367       .  D
C666       C1168   1.487       .  S
C671        C672   1.531       .  S
C671       C1101   1.531       .  S
C672        H679   1.087       .  S
C672        C673   1.358       .  D
C673       C1126   1.484       .  S
C674        C678   1.544       .  S
C674        C676   1.529   1_545  S
C674        H680   1.111       .  S
C675        H681   1.086       .  S
C675        C676   1.371       .  D
C676       C1140   1.486       .  S
C677        H682   1.081   1_545  S
C677        C678   1.366       .  D
C678       C1112   1.480   1_545  S
O683        V691   1.886       .  S
O683        C693   1.257       .  A
O684        V691   1.882       .  S
O684        C694   1.259       .  A
O685        V691   1.915       .  S
O685        C695   1.270       .  A
O686        V691   1.918       .  S
O686        C696   1.271       .  A
O687        V692   1.887       .  S
O687        C696   1.260       .  A
O688        V692   1.884       .  S
O688        C695   1.258       .  A
O689        V692   1.917       .  S
O689        C694   1.269       .  A
O690        V692   1.906       .  S
O690        C693   1.271       .  A
V691        V692   2.084       .  T
C693       C1084   1.483       .  S
C694       C1143   1.471       .  S
C695       C1070   1.474       .  S
C696       C1129   1.483       .  S
C697        C698   1.538       .  S
C697       C1056   1.558       .  S
C698        H705   1.083       .  S
C698        C699   1.346       .  D
C699       C1087   1.496       .  S
C700        C704   1.570       .  S
C700        C702   1.525   1_545  S
C700        H706   1.104       .  S
C701        H707   1.086   1_545  S
C701        C702   1.378   1_545  D
C702       C1073   1.500       .  S
C703        H708   1.085       .  S
C703        C704   1.377       .  D
C704       C1042   1.515   1_545  S
C709       C1185   1.511       .  S
C709        C710   1.428       .  A
C709        C714   1.415       .  A
C710       C1045   1.501       .  S
C710        C711   1.411       .  A
C711        C712   1.415   1_556  A
C711        H716   1.083       .  S
C712       C1028   1.512       .  S
C712        C713   1.431       .  A
C713       C1017   1.512       .  S
C713        C714   1.406   1_554  A
C714        H715   1.083       .  S
O717        V725   1.923       .  S
O717        C727   1.272       .  A
O718        C728   1.271       .  A
O719        C729   1.260       .  A
O720        V725   1.885   1_655  S
O720        C730   1.258       .  A
O721        V726   1.912       .  S
O721        C730   1.271       .  A
O722        C729   1.270       .  A
O723        C728   1.260       .  A
O724        V726   1.882   1_455  S
O724        C727   1.258       .  A
V725        V726   2.084   1_455  T
C727        C972   1.480       .  S
C728       C1000   1.494       .  S
C729        C961   1.488       .  S
C730        C986   1.483       .  S
C731        C732   1.539       .  S
C731        C737   1.531       .  S
C731        C735   1.561       .  S
C731        C944   1.549       .  S
C732        H739   1.086       .  S
C732        C733   1.370       .  D
C733        C734   1.549       .  S
C733       C1014   1.500       .  S
C734        C738   1.538       .  S
C734        C736   1.535       .  S
C734        H740   1.109       .  S
C735        H741   1.082       .  S
C735        C736   1.383       .  D
C736        C958   1.499       .  S
C737        H742   1.088       .  S
C737        C738   1.352       .  D
C738        C975   1.481       .  S
C743        C744   1.530       .  S
C743        C749   1.531       .  S
C743        C747   1.561       .  S
C743        C930   1.539       .  S
C744        H751   1.080       .  S
C744        C745   1.365       .  D
C745        C746   1.549       .  S
C745        C916   1.476       .  S
C746        C750   1.538       .  S
C746        C748   1.534       .  S
C746        H752   1.108       .  S
C747        H753   1.083       .  S
C747        C748   1.378       .  D
C748       C1003   1.505       .  S
C749        H754   1.088       .  S
C749        C750   1.351       .  D
C750        C989   1.487       .  S
C755        C756   1.542       .  S
C755        C761   1.528       .  S
C755        C874   1.548       .  S
C756        H763   1.082       .  S
C757        C758   1.547       .  S
C757        C860   1.483       .  S
C758        C760   1.537       .  S
C758        H764   1.107       .  S
C759        H765   1.083       .  S
C759        C760   1.378       .  D
C760        C902   1.503       .  S
C761        H766   1.087       .  S
C761        C762   1.357       .  D
C762        C888   1.491       .  S
C767        C773   1.528       .  S
C767       C1031   1.543       .  S
C768        H775   1.086       .  S
C768        C769   1.368       .  D
C769        C770   1.537       .  S
C769        C821   1.488       .  S
C770        C772   1.526       .  S
C770        H776   1.111       .  S
C771        H777   1.083       .  S
C771        C772   1.384       .  D
C772        C846   1.493       .  S
C773        H778   1.086       .  S
C773        C774   1.347       .  D
C774        C832   1.471       .  S
O779        V787   1.922       .  S
O779        C789   1.272       .  A
O780        V787   1.920       .  S
O780        C790   1.270       .  A
O781        V787   1.883       .  S
O781        C791   1.257       .  A
O782        V787   1.878       .  S
O782        C792   1.257       .  A
O783        V788   1.905       .  S
O783        C792   1.269       .  A
O784        V788   1.911       .  S
O784        C791   1.268       .  A
O785        V788   1.886       .  S
O785        C790   1.258       .  A
O786        V788   1.882       .  S
O786        C789   1.259       .  A
V787        V788   2.086       .  T
C789        C905   1.492       .  S
C790        C849   1.472       .  S
C791        C891   1.465       .  S
C792        C835   1.474       .  S
C793       C1098   1.477       .  S
C793        C794   1.412       .  A
C793        C798   1.401   1_556  A
C794       C1154   1.494       .  S
C794        C795   1.398   1_556  A
C795        C796   1.409       .  A
C795        H800   1.085       .  S
C796        C933   1.493       .  S
C796        C797   1.425       .  A
C797        C877   1.494       .  S
C797        C798   1.407       .  A
C798        H799   1.085       .  S
C801       C1199   1.505       .  S
C801        C802   1.420       .  A
C801        C806   1.416       .  A
C802       C1059   1.493       .  S
C802        C803   1.399       .  A
C803        C804   1.406       .  A
C803        H808   1.085       .  S
C804        C818   1.485       .  S
C804        C805   1.432       .  A
C805        C947   1.528       .  S
C805        C806   1.419       .  A
C806        H807   1.081       .  S
C809       C1115   1.477       .  S
C809        C810   1.410       .  A
C809        C814   1.402       .  A
C810       C1171   1.481       .  S
C810        C811   1.397       .  A
C811        C812   1.404       .  A
C811        H816   1.085       .  S
C812        C919   1.487       .  S
C812        C813   1.423       .  A
C813        C863   1.494       .  S
C813        C814   1.406       .  A
C814        H815   1.085       .  S
C817        C818   1.407       .  A
C817        C822   1.405       .  A
C817        H824   1.084       .  S
C818        C819   1.410       .  A
C819        C820   1.401       .  A
C819        N826   1.432       .  S
C820        C821   1.407       .  A
C820        H825   1.083       .  S
C821        C822   1.407       .  A
N823        H827   1.046       .  S
N823        H828   1.045       .  S
N826        H829   1.046       .  S
N826        H830   1.044       .  S
C831        C832   1.394       .  A
C831        C836   1.396       .  A
C831        H838   1.084       .  S
C832        C833   1.419       .  A
C833        C834   1.392       .  A
C833        N840   1.435       .  S
C834        C835   1.398       .  A
C834        H839   1.084       .  S
C835        C836   1.422       .  A
C836        N837   1.433       .  S
N837        H841   1.045       .  S
N837        H842   1.046       .  S
N840        H844   1.042       .  S
C845        C846   1.410       .  A
C845        C850   1.399       .  A
C845        H852   1.081       .  S
C846        C847   1.414       .  A
C847        C848   1.408       .  A
C847        N854   1.432       .  S
C848        C849   1.408       .  A
C848        H853   1.084       .  S
C849        C850   1.399       .  A
C850        N851   1.433       .  S
N851        H855   1.046       .  S
N851        H856   1.045       .  S
N854        H857   1.046       .  S
N854        H858   1.044       .  S
C859        C860   1.400       .  A
C859        C864   1.403       .  A
C859        H866   1.082       .  S
C860        C861   1.410       .  A
C861        C862   1.404       .  A
C862        C863   1.409       .  A
C862        H867   1.084       .  S
C863        C864   1.410       .  A
C864        N865   1.431       .  S
N865        H869   1.046       .  S
N865        H870   1.045       .  S
N868        H871   1.046       .  S
N868        H872   1.045       .  S
C873        C874   1.419       .  A
C873        C878   1.411       .  A
C873        H880   1.076       .  S
C874        C875   1.428       .  A
C875        C876   1.396       .  A
C875        N882   1.435       .  S
C876        C877   1.401       .  A
C876        H881   1.084       .  S
C877        C878   1.405       .  A
C878        N879   1.432       .  S
N879        H883   1.045       .  S
N879        H884   1.046       .  S
C887        C888   1.406       .  A
C887        C892   1.400       .  A
C887        H894   1.084       .  S
C888        C889   1.415       .  A
C889        C890   1.406       .  A
C889        N896   1.429       .  S
C890        C891   1.398       .  A
C890        H895   1.084       .  S
C891        C892   1.403       .  A
C892        N893   1.433       .  S
N893        H897   1.045       .  S
N893        H898   1.046       .  S
N896        H900   1.045       .  S
C901        C902   1.404       .  A
C901        C906   1.407       .  A
C901        H908   1.083       .  S
C902        C903   1.417       .  A
C903        C904   1.406       .  A
C903        N910   1.429       .  S
C904        C905   1.401       .  A
C904        H909   1.084       .  S
C905        C906   1.420       .  A
C906        N907   1.439       .  S
N907        H911   1.046       .  S
N907        H912   1.046       .  S
N910        H913   1.046       .  S
N910        H914   1.046       .  S
C915        C916   1.397       .  A
C915        C920   1.405       .  A
C915        H922   1.084       .  S
C916        C917   1.410       .  A
C917        C918   1.402       .  A
C917        N924   1.431       .  S
C918        C919   1.402       .  A
C918        H923   1.084       .  S
C919        C920   1.417       .  A
C920        N921   1.438       .  S
N921        H925   1.046       .  S
N921        H926   1.045       .  S
N924        H927   1.045       .  S
N924        H928   1.046       .  S
C929        C930   1.408       .  A
C929        C934   1.388       .  A
C929        H936   1.082       .  S
C930        C931   1.431       .  A
C931        C932   1.410       .  A
C931        N938   1.429       .  S
C932        C933   1.403       .  A
C932        H937   1.083       .  S
C933        C934   1.408       .  A
C934        N935   1.432       .  S
N935        H939   1.046       .  S
N935        H940   1.046       .  S
N938        H941   1.044       .  S
N938        H942   1.045       .  S
C943        C944   1.406       .  A
C943        C948   1.415       .  A
C943        H950   1.081       .  S
C944        C945   1.418       .  A
C945        C946   1.404       .  A
C945        N952   1.434       .  S
C946        C947   1.407       .  A
C946        H951   1.074       .  S
C947        C948   1.424       .  A
C948        N949   1.430       .  S
N949        H953   1.046       .  S
N949        H954   1.046       .  S
N952        H955   1.046       .  S
N952        H956   1.046       .  S
C957        C958   1.410       .  A
C957        C962   1.404       .  A
C957        H964   1.081       .  S
C958        C959   1.411       .  A
C959        C960   1.406       .  A
C959        N966   1.432       .  S
C960        C961   1.408       .  A
C960        H965   1.084       .  S
C961        C962   1.407       .  A
C962        N963   1.432       .  S
N963        H967   1.046       .  S
N966        H969   1.046       .  S
N966        H970   1.045       .  S
C971        C972   1.408       .  A
C971        C976   1.407       .  A
C971        H978   1.084       .  S
C972        C973   1.408       .  A
C973        C974   1.407       .  A
C973        N980   1.437       .  S
C974        C975   1.407       .  A
C974        H979   1.082       .  S
C975        C976   1.404       .  A
C976        N977   1.437       .  S
N977        H981   1.046       .  S
N977        H982   1.046       .  S
N980        H983   1.046       .  S
N980        H984   1.046       .  S
C985        C986   1.396       .  A
C985        C990   1.394       .  A
C985        H992   1.084       .  S
C986        C987   1.418       .  A
C987        C988   1.407       .  A
C987        N994   1.432       .  S
C988        C989   1.398       .  A
C988        H993   1.084       .  S
C989        C990   1.423       .  A
C990        N991   1.431       .  S
N991        H995   1.042       .  S
N991        H996   1.041       .  S
N994        H997   1.046       .  S
N994        H998   1.046       .  S
C999       C1000   1.409       .  A
C999       C1004   1.402       .  A
C999       H1006   1.083       .  S
C1000      C1001   1.413       .  A
C1001      C1002   1.402       .  A
C1001      N1008   1.432       .  S
C1002      C1003   1.412       .  A
C1002      H1007   1.080       .  S
C1003      C1004   1.413       .  A
C1004      N1005   1.432       .  S
N1005      H1009   1.046       .  S
N1005      H1010   1.046       .  S
N1008      H1011   1.045       .  S
N1008      H1012   1.045       .  S
C1013      C1014   1.402       .  A
C1013      C1018   1.414       .  A
C1013      H1020   1.084       .  S
C1014      C1015   1.423       .  A
C1015      C1016   1.407       .  A
C1015      N1022   1.437       .  S
C1016      C1017   1.405       .  A
C1016      H1021   1.084       .  S
C1017      C1018   1.420       .  A
C1018      N1019   1.438       .  S
N1019      H1023   1.046       .  S
N1019      H1024   1.046       .  S
N1022      H1025   1.040       .  S
N1022      H1026   1.045       .  S
C1027      C1028   1.400       .  A
C1027      C1032   1.394       .  A
C1027      H1034   1.081       .  S
C1028      C1029   1.423       .  A
C1029      C1030   1.417       .  A
C1029      N1036   1.437   1_565  S
C1030      C1031   1.408       .  A
C1030      H1035   1.081   1_565  S
C1031      C1032   1.429       .  A
C1032      N1033   1.440       .  S
N1033      H1037   1.041       .  S
N1033      H1038   1.045       .  S
N1036      H1039   1.046       .  S
N1036      H1040   1.046       .  S
C1041      C1042   1.413       .  A
C1041      C1046   1.410       .  A
C1042      C1043   1.417       .  A
C1043      C1044   1.409       .  A
C1043      N1050   1.431       .  S
C1044      C1045   1.405       .  A
C1044      H1049   1.084       .  S
C1045      C1046   1.413       .  A
C1046      N1047   1.432       .  S
N1047      H1052   1.045       .  S
N1050      H1053   1.046       .  S
N1050      H1054   1.046       .  S
C1055      C1056   1.420       .  A
C1055      C1060   1.401       .  A
C1055      H1062   1.074       .  S
C1056      C1057   1.417       .  A
C1057      C1058   1.417       .  A
C1058      C1059   1.408       .  A
C1058      H1063   1.083       .  S
C1059      C1060   1.399       .  A
C1060      N1061   1.439       .  S
N1061      H1065   1.046       .  S
N1061      H1066   1.045       .  S
N1064      H1067   1.045       .  S
N1064      H1068   1.046       .  S
C1069      C1070   1.391       .  A
C1069      C1074   1.395       .  A
C1069      H1076   1.085       .  S
C1070      C1071   1.416       .  A
C1071      C1072   1.403       .  A
C1071      N1078   1.433       .  S
C1072      C1073   1.405       .  A
C1072      H1077   1.084       .  S
C1073      C1074   1.428       .  A
C1074      N1075   1.426   1_565  S
N1075      H1079   1.038       .  S
N1075      H1080   1.040       .  S
N1078      H1081   1.046       .  S
N1078      H1082   1.044       .  S
C1083      C1084   1.392       .  A
C1083      C1088   1.386       .  A
C1083      H1090   1.084       .  S
C1084      C1085   1.421       .  A
C1085      C1086   1.413       .  A
C1085      N1092   1.437       .  S
C1086      C1087   1.400       .  A
C1086      H1091   1.084       .  S
C1087      C1088   1.431       .  A
C1088      N1089   1.432       .  S
N1089      H1093   1.038       .  S
N1089      H1094   1.040       .  S
N1092      H1095   1.045       .  S
N1092      H1096   1.046       .  S
C1097      C1098   1.396       .  A
C1097      C1102   1.394       .  A
C1097      H1104   1.085       .  S
C1098      C1099   1.410       .  A
C1099      C1100   1.403       .  A
C1099      N1106   1.432       .  S
C1100      C1101   1.412       .  A
C1101      C1102   1.420       .  A
C1102      N1103   1.434       .  S
N1103      H1107   1.046       .  S
N1103      H1108   1.045       .  S
N1106      H1109   1.045       .  S
C1111      C1112   1.403       .  A
C1111      C1116   1.402       .  A
C1111      H1118   1.084       .  S
C1112      C1113   1.414   1_565  A
C1113      C1114   1.400   1_545  A
C1113      N1120   1.433       .  S
C1114      C1115   1.402       .  A
C1114      H1119   1.084       .  S
C1115      C1116   1.406       .  A
C1116      N1117   1.432       .  S
N1117      H1121   1.045       .  S
N1117      H1122   1.046       .  S
N1120      H1123   1.044       .  S
N1120      H1124   1.046       .  S
C1125      C1126   1.408       .  A
C1125      C1130   1.407       .  A
C1125      H1132   1.084       .  S
C1126      C1127   1.405       .  A
C1127      C1128   1.402       .  A
C1127      N1134   1.432       .  S
C1128      C1129   1.410       .  A
C1128      H1133   1.084       .  S
C1129      C1130   1.409       .  A
C1130      N1131   1.437       .  S
N1131      H1135   1.046       .  S
N1131      H1136   1.046       .  S
N1134      H1137   1.046       .  S
N1134      H1138   1.046       .  S
C1139      C1140   1.408       .  A
C1139      C1144   1.409       .  A
C1139      H1146   1.083   1_565  S
C1140      C1141   1.409       .  A
C1141      C1142   1.403       .  A
C1141      N1148   1.438       .  S
C1142      C1143   1.403       .  A
C1142      H1147   1.084       .  S
C1143      C1144   1.407       .  A
C1144      N1145   1.438       .  S
N1145      H1149   1.046       .  S
N1145      H1150   1.046       .  S
N1148      H1151   1.046       .  S
N1148      H1152   1.046       .  S
C1153      C1154   1.402       .  A
C1153      C1158   1.407       .  A
C1153      H1160   1.082       .  S
C1154      C1155   1.411       .  A
C1155      C1156   1.399       .  A
C1155      N1162   1.437       .  S
C1156      C1157   1.409       .  A
C1156      H1161   1.083       .  S
C1157      C1158   1.423       .  A
C1158      N1159   1.430       .  S
N1159      H1163   1.046       .  S
N1159      H1164   1.046       .  S
N1162      H1165   1.046       .  S
N1162      H1166   1.046       .  S
C1167      C1168   1.405       .  A
C1167      C1172   1.399       .  A
C1167      H1174   1.083       .  S
C1168      C1169   1.413       .  A
C1169      C1170   1.407       .  A
C1169      N1176   1.438       .  S
C1170      C1171   1.403       .  A
C1170      H1175   1.083       .  S
C1171      C1172   1.410       .  A
C1172      N1173   1.432       .  S
N1173      H1177   1.045       .  S
N1173      H1178   1.045       .  S
N1176      H1179   1.046       .  S
N1176      H1180   1.046       .  S
C1181      C1182   1.418       .  A
C1181      C1186   1.411       .  A
C1181      H1188   1.078       .  S
C1182      C1183   1.419       .  A
C1183      C1184   1.406       .  A
C1183      N1190   1.430       .  S
C1184      C1185   1.407       .  A
C1184      H1189   1.084       .  S
C1185      C1186   1.410       .  A
C1186      N1187   1.429       .  S
N1187      H1191   1.046       .  S
N1187      H1192   1.045       .  S
N1190      H1193   1.046       .  S
N1190      H1194   1.046       .  S
C1195      C1196   1.407       .  A
C1195      C1200   1.406       .  A
C1195      H1202   1.082       .  S
C1196      C1197   1.423       .  A
C1197      C1198   1.405       .  A
C1197      N1204   1.439       .  S
C1198      C1199   1.402       .  A
C1198      H1203   1.080       .  S
C1199      C1200   1.420       .  A
C1200      N1201   1.431       .  S
N1201      H1205   1.039       .  S
N1201      H1206   1.045       .  S
N1204      H1207   1.045       .  S
N1204      H1208   1.046       .  S
C1209      C1210   1.408       .  A
C1209      C1214   1.400       .  A
C1209      H1216   1.084       .  S
C1210      C1211   1.410       .  A
C1211      C1212   1.408       .  A
C1211      N1218   1.437       .  S
C1212      C1213   1.410       .  A
C1212      H1217   1.083       .  S
C1213      C1214   1.417       .  A
C1214      N1215   1.432       .  S
N1215      H1219   1.044       .  S
N1215      H1220   1.044       .  S
N1218      H1221   1.044       .  S
N1218      H1222   1.046       .  S
C1223      C1224   1.399       .  A
C1223      C1228   1.404       .  A
C1223      H1230   1.084       .  S
C1224      C1225   1.411       .  A
C1225      C1226   1.403       .  A
C1225      N1232   1.433       .  S
C1226      C1227   1.401       .  A
C1226      H1231   1.084       .  S
C1227      C1228   1.409       .  A
C1228      N1229   1.429       .  S
N1229      H1233   1.045       .  S
N1229      H1234   1.045       .  S
N1232      H1235   1.046       .  S
N1232      H1236   1.046       .  S
C1237      C1238   1.396       .  A
C1237      C1242   1.406       .  A
C1237      H1244   1.084       .  S
C1238      C1239   1.414       .  A
C1239      C1240   1.402       .  A
C1239      N1246   1.433       .  S
C1240      C1241   1.401       .  A
C1240      H1245   1.084       .  S
C1241      C1242   1.419       .  A
C1242      N1243   1.432       .  S
N1243      H1247   1.046       .  S
N1243      H1248   1.046       .  S
N1246      H1249   1.046       .  S
N1246      H1250   1.045       .  S
C1251      C1252   1.403       .  A
C1251      C1256   1.399       .  A
C1251      H1258   1.085       .  S
C1252      C1253   1.406       .  A
C1253      C1254   1.408       .  A
C1253      N1260   1.437       .  S
C1254      C1255   1.407       .  A
C1254      H1259   1.083       .  S
C1255      C1256   1.413       .  A
C1256      N1257   1.433       .  S
N1257      H1261   1.043       .  S
N1257      H1262   1.045       .  S
N1260      H1263   1.045       .  S
N1260      H1264   1.046       .  S
