geometry optimzed in LAMMPS
_audit_creation_date              2020-11-30 
_audit_creation_method            'lammps2cif' 
_symmetry_space_group_name_H-M    'P1' 
_symmetry_Int_Tables_number       1 
_symmetry_cell_setting            triclinic 
loop_ 
_symmetry_equiv_pos_as_xyz 
  x,y,z 
_cell_length_a                    32.87765462 
_cell_length_b                    33.26384119941516 
_cell_length_c                    42.4237238409674 
_cell_angle_alpha                 90.29816364291125 
_cell_angle_beta                  90.21609703551022 
_cell_angle_gamma                 119.44461944090915 
loop_ 
_atom_site_label 
_atom_site_type_symbol 
_atom_site_fract_x 
_atom_site_fract_y 
_atom_site_fract_z 
_atom_site_charge 
O1          O  0.47351714  0.38381257  0.30868554    -0.75700
O2          O  0.41523835  0.35240202  0.27223778    -0.54700
C3          C  0.43393153  0.35131847  0.29857036     0.78000
O4          O  0.50507357  0.58059904  0.33356408    -0.60300
O5          O  0.57099559  0.62012439  0.30423702    -0.53400
C6          C  0.54675177  0.61484495  0.32902700     0.70000
O7          O  0.37545089  0.43613866  0.31634816    -0.74900
O8          O  0.35932271  0.38512722  0.27595332    -0.55500
C9          C  0.34920898  0.39666668  0.30240925     0.76000
O10         O  0.60429248  0.51479253  0.31734368    -0.60000
O11         O  0.62685337  0.58417404  0.29443399    -0.53200
C12         C  0.63161955  0.55866605  0.31501318     0.72600
Zr13       Zr  0.53634415  0.45580339  0.28819981     2.54700
O14         O  0.55996144  0.42634355  0.33308371    -0.80600
O15         O  0.57898268  0.42255073  0.26214981    -0.94000
Zr16       Zr  0.45052621  0.50827777  0.30452428     2.64700
O17         O  0.44186781  0.49219486  0.36083790    -0.99000
O18         O  0.40042763  0.54307778  0.30685468    -0.81000
O19         O  0.46459282  0.45079631  0.28817063    -0.84400
O20         O  0.52807033  0.52059329  0.30206986    -2.19100
O21         O  0.61474262  0.55506721  0.18539880    -0.67800
O22         O  0.63068338  0.60676965  0.22545845    -0.52400
C23         C  0.64032761  0.59514700  0.19881893     0.71000
O24         O  0.39104369  0.47407073  0.18225378    -0.60700
O25         O  0.36409107  0.40591685  0.20778634    -0.52700
C26         C  0.36220492  0.43065921  0.18544473     0.72800
O27         O  0.51404807  0.61537877  0.19913116    -0.72100
O28         O  0.57615021  0.64130240  0.23273286    -0.50800
C29         C  0.55507054  0.64618909  0.20876563     0.74200
O30         O  0.48326004  0.41157878  0.16713254    -0.67400
O31         O  0.41962864  0.37102579  0.19821275    -0.54600
C32         C  0.44221230  0.37686294  0.17254273     0.72500
Zr33       Zr  0.54011278  0.48187817  0.19686004     2.77500
O34         O  0.54539320  0.49367532  0.14005014    -0.98200
O35         O  0.59068948  0.44784303  0.19344889    -0.79000
Zr36       Zr  0.45497849  0.53581665  0.21257261     2.70100
O37         O  0.44305407  0.55935760  0.16063941    -0.80200
O38         O  0.40280018  0.56422861  0.22903198    -0.99300
Zr39       Zr  0.42666037  0.41861812  0.24265300     2.21500
Zr40       Zr  0.56424403  0.57279263  0.25967006     2.11100
O41         O  0.53160020  0.54682310  0.20860688    -2.48000
O42         O  0.46278989  0.47023149  0.20043218    -0.80000
O43         O  0.57597073  0.50925592  0.24737938    -0.72200
O44         O  0.41509865  0.48257703  0.25388946    -2.33200
O45         O  0.50248805  0.42652516  0.23782373    -2.29400
O46         O  0.48777057  0.56378997  0.26358126    -0.74000
H47         H  0.54251655  0.53269143  0.32225349     0.78000
H48         H  0.38248896  0.47375865  0.25416816     0.79100
H49         H  0.54828785  0.56859465  0.19224074     0.81300
H50         H  0.50059950  0.39725871  0.23305120     0.78900
H51         H  0.39322636  0.54292380  0.32951566     0.42000
H52         H  0.41430139  0.59384002  0.21780162     0.40900
H53         H  0.45991628  0.54932369  0.14611497     0.40600
H54         H  0.54300811  0.52194213  0.13701290     0.38500
H55         H  0.58169560  0.43035850  0.17329648     0.41700
H56         H  0.56467520  0.39055946  0.27011526     0.36500
H57         H  0.54780503  0.43477809  0.35181580     0.42600
H58         H  0.47350251  0.49992314  0.36825924     0.39000
H59         H  0.57807819  0.50286853  0.13464698     0.43900
H60         H  0.61048072  0.43856454  0.27193494     0.42600
H61         H  0.43643259  0.51648085  0.37018465     0.42800
H62         H  0.37268363  0.54311722  0.21855944     0.43100
O63         O  0.05618537  0.44262503  0.31574047    -0.75700
O64         O  0.02427046  0.39171771  0.27489104    -0.54700
C65         C  0.04286293  0.40279890  0.30241045     0.78000
O66         O  0.91370643  0.52513578  0.31080001    -0.60300
O67         O  0.96091495  0.59504284  0.28879813    -0.53400
C68         C  0.92988843  0.56902778  0.30864197     0.70000
O69         O  0.91842780  0.39366513  0.30582236    -0.74900
O70         O  0.93596826  0.36001343  0.26561642    -0.55500
C71         C  0.92151898  0.35977764  0.29359007     0.76000
O72         O  0.07420725  0.58786172  0.33070375    -0.60000
O73         O  0.05173603  0.62945368  0.29963177    -0.53200
C74         C  0.06804743  0.62284771  0.32539049     0.72600
Zr75       Zr  0.06068742  0.51733562  0.30100755     2.54700
O76         O  0.07019405  0.51116566  0.35747105    -0.80600
O77         O  0.14525059  0.55115725  0.29932460    -0.94000
Zr78       Zr  0.92297517  0.46410439  0.28472011     2.64700
O79         O  0.87470218  0.43458452  0.33165930    -0.99000
O80         O  0.84419189  0.42639185  0.26269386    -0.81000
O81         O  0.98956399  0.45902084  0.28489427    -0.84400
O82         O  0.99537203  0.52965356  0.29814505    -2.19100
O83         O  0.10256509  0.62044641  0.19319209    -0.67800
O84         O  0.06878582  0.64835148  0.22707228    -0.52400
C85         C  0.09320455  0.65188524  0.20260897     0.71000
O86         O  0.93204782  0.42044178  0.16297632    -0.60700
O87         O  0.95578039  0.38006393  0.19403811    -0.52700
C88         C  0.93849149  0.38573742  0.16846594     0.72800
O89         O  0.93847960  0.56086501  0.18309524    -0.72100
O90         O  0.97723890  0.61467129  0.22147188    -0.50800
C91         C  0.95290324  0.60125993  0.19601586     0.74200
O92         O  0.08745068  0.48128523  0.18021628    -0.67400
O93         O  0.04517539  0.41341416  0.20570216    -0.54600
C94         C  0.07307679  0.43796620  0.18396142     0.72500
Zr95       Zr  0.08317487  0.54250825  0.20967322     2.77500
O96         O  0.12982751  0.56325601  0.16174443    -0.98200
O97         O  0.16068755  0.57320827  0.23299069    -0.79000
Zr98       Zr  0.94488685  0.48976626  0.19331527     2.70100
O99         O  0.94700846  0.50395975  0.13688827    -0.80200
O100        O  0.86001644  0.45132083  0.19028886    -0.99300
Zr101      Zr  0.99461843  0.42692342  0.23907738     2.21500
Zr102      Zr  0.01154993  0.58146196  0.25509051     2.11100
O103        O  0.01816146  0.55506485  0.20394530    -2.48000
O104        O  0.00937931  0.48178123  0.20255539    -0.80000
O105        O  0.07922866  0.57261453  0.25992202    -0.72200
O106        O  0.92627437  0.43429613  0.23424452    -2.33200
O107        O  0.07040381  0.48968306  0.25114269    -2.29400
O108        O  0.93625992  0.51730917  0.24344361    -0.74000
H109        H  0.99233121  0.54162769  0.31815677     0.78000
H110        H  0.89903851  0.40532903  0.22942909     0.79100
H111        H  0.02202202  0.57605561  0.18722724     0.81300
H112        H  0.09384235  0.48039899  0.25184633     0.78900
H113        H  0.83110043  0.39345729  0.26823928     0.42000
H114        H  0.85144602  0.47068924  0.20342479     0.40900
H115        H  0.97879643  0.51137945  0.13031509     0.40600
H116        H  0.11122995  0.56892777  0.14576564     0.38500
H117        H  0.17264917  0.60688331  0.23468081     0.41700
H118        H  0.15208367  0.53176583  0.31363438     0.36500
H119        H  0.03941572  0.50289951  0.36660677     0.42600
H120        H  0.89447889  0.45404866  0.34931642     0.39000
H121        H  0.15713915  0.59402080  0.16611366     0.43900
H122        H  0.15734607  0.58101078  0.31065872     0.42600
H123        H  0.84990649  0.44310182  0.32929996     0.42800
H124        H  0.85330109  0.45664506  0.16841116     0.43100
O125        O  0.37964485  0.91322482  0.31188047    -0.75700
O126        O  0.34968931  0.94594633  0.27912121    -0.54700
C127        C  0.34818391  0.92384892  0.30405667     0.78000
O128        O  0.59338018  0.06534541  0.32680277    -0.60300
O129        O  0.62304261  0.03063439  0.29520983    -0.53400
C130        C  0.62447564  0.05370586  0.31998573     0.70000
O131        O  0.45164234  0.05772809  0.32768274    -0.74900
O132        O  0.39309313  0.03305918  0.29131548    -0.55500
C133        C  0.41093412  0.04982446  0.31848564     0.76000
O134        O  0.50867882  0.90155058  0.30993846    -0.60000
O135        O  0.57506467  0.93940372  0.28115092    -0.53200
C136        C  0.55120305  0.91259736  0.30355931     0.72600
Zr137      Zr  0.44942411  0.91785610  0.28762779     2.54700
O138        O  0.42433388  0.87090991  0.33505383    -0.80600
O139        O  0.40913302  0.84150861  0.26328649    -0.94000
Zr140      Zr  0.51852812  0.05434871  0.30550176     2.64700
O141        O  0.51881623  0.05712652  0.36300090    -0.99000
O142        O  0.55761270  0.13835449  0.30752488    -0.81000
O143        O  0.45268242  0.98775033  0.29139836    -0.84400
O144        O  0.52175144  0.98531599  0.29901390    -2.19100
O145        O  0.53050770  0.93447792  0.17521472    -0.67800
O146        O  0.59016119  0.96284243  0.21098724    -0.52400
C147        C  0.57197859  0.94423234  0.18424950     0.71000
O148        O  0.46933809  0.08325359  0.18698557    -0.60700
O149        O  0.40555105  0.05238214  0.21843918    -0.52700
C150        C  0.42729745  0.07373638  0.19364353     0.72800
O151        O  0.61035018  0.09333749  0.19684880    -0.72100
O152        O  0.63543776  0.05214361  0.22576687    -0.50800
C153        C  0.64071571  0.08079162  0.20397080     0.74200
O154        O  0.39495646  0.93877394  0.17190360    -0.67400
O155        O  0.36067807  0.96453349  0.20699693    -0.54600
C156        C  0.36227827  0.94743340  0.18013180     0.72500
Zr157      Zr  0.46441012  0.94189875  0.19621175     2.77500
O158        O  0.46139997  0.93948299  0.13872767    -0.98200
O159        O  0.42356955  0.85789719  0.19362777    -0.79000
Zr160      Zr  0.53254415  0.07803117  0.21427501     2.70100
O161        O  0.55731288  0.12112399  0.16523743    -0.80200
O162        O  0.56423619  0.15521435  0.23681122    -0.99300
Zr163      Zr  0.41628882  0.99873417  0.24968179     2.21500
Zr164      Zr  0.56688530  0.99689407  0.25260205     2.11100
O165        O  0.53671831  0.00994780  0.20475331    -2.48000
O166        O  0.46552058  0.00893347  0.20956011    -0.80000
O167        O  0.49580494  0.92675564  0.24249708    -0.72200
O168        O  0.48657048  0.06977360  0.25956122    -2.33200
O169        O  0.41481877  0.92701240  0.24075377    -2.29400
O170        O  0.56704706  0.06811803  0.26085754    -0.74000
H171        H  0.53591449  0.98140465  0.31784526     0.78000
H172        H  0.48082426  0.09539112  0.26247758     0.79100
H173        H  0.55606195  0.01458789  0.18662042     0.81300
H174        H  0.38351223  0.90170232  0.23712954     0.78900
H175        H  0.53473221  0.14548557  0.31756235     0.42000
H176        H  0.59852075  0.16800351  0.23638831     0.40900
H177        H  0.55006633  0.09743303  0.14867140     0.40600
H178        H  0.49252572  0.96408736  0.13192628     0.38500
H179        H  0.40265416  0.85007715  0.17503794     0.41700
H180        H  0.37777566  0.82628154  0.27301734     0.36500
H181        H  0.43462595  0.89336004  0.35276077     0.42600
H182        H  0.52691569  0.03349559  0.36987725     0.39000
H183        H  0.46067906  0.91028442  0.13287062     0.43900
H184        H  0.42488939  0.82525227  0.27219003     0.42600
H185        H  0.54647446  0.08701091  0.36870973     0.42800
H186        H  0.55800746  0.17291330  0.22064609     0.43100
C187        C  0.09076642  0.19698084  0.35031231     0.79800
N188        N  0.06776388  0.22203198  0.34908849    -0.78500
C189        C  0.09238631  0.26911249  0.34622504     0.82200
N190        N  0.13941422  0.29044914  0.34441675    -0.78500
C191        C  0.16298185  0.26678901  0.34478198     0.82300
N192        N  0.13860347  0.21966363  0.34760238    -0.80200
C193        C  0.13928404  0.27985376  0.08317465     0.79800
N194        N  0.18586924  0.29979237  0.08906946    -0.78500
C195        C  0.20943686  0.34378812  0.10029049     0.82200
N196        N  0.18604359  0.36674388  0.10648572    -0.78500
C197        C  0.13944750  0.34648344  0.10201118     0.82300
N198        N  0.11572490  0.30250626  0.09076856    -0.80200
C199        C  0.12092435  0.85352620  0.08909305     0.79800
N200        N  0.16709371  0.88584733  0.09275728    -0.78500
C201        C  0.19618019  0.87465656  0.10875865     0.82200
N202        N  0.17889752  0.83241823  0.12142533    -0.78500
C203        C  0.13329850  0.80101803  0.11894782     0.82300
N204        N  0.10382464  0.81149804  0.10300442    -0.80200
C205        C  0.86890026  0.14056801  0.10664895     0.79800
N206        N  0.82534855  0.11911107  0.11922972    -0.78500
C207        C  0.80390985  0.14382580  0.12681821     0.82200
N208        N  0.82622378  0.18979982  0.12214119    -0.78500
C209        C  0.87001953  0.21221778  0.11061980     0.82300
N210        N  0.89193749  0.18753958  0.10310198    -0.80200
C211        C  0.87059515  0.15134825  0.40857383     0.79800
N212        N  0.89287949  0.19129281  0.39198035    -0.78500
C213        C  0.86838554  0.20232394  0.37126559     0.82200
N214        N  0.82204656  0.17404777  0.36755436    -0.78500
C215        C  0.79931147  0.13454073  0.38397992     0.82300
N216        N  0.82369557  0.12246473  0.40427119    -0.80200
C217        C  0.26570671  0.14605011  0.41070353     0.79800
N218        N  0.28963617  0.18849046  0.39739611    -0.78500
C219        C  0.32854229  0.19954237  0.38036258     0.82200
N220        N  0.34282554  0.16829373  0.37619562    -0.78500
C221        C  0.31886732  0.12567951  0.38849977     0.82300
N222        N  0.27962680  0.11396962  0.40561889    -0.80200
C223        C  0.11512114  0.85748622  0.39528234     0.79800
N224        N  0.16044595  0.88343909  0.38649507    -0.78500
C225        C  0.18664942  0.86302914  0.38066938     0.82200
N226        N  0.16720655  0.81685257  0.38291970    -0.78500
C227        C  0.12182276  0.78997102  0.39035032     0.82300
N228        N  0.09519813  0.81037330  0.39642810    -0.80200
C229        C  0.26160031  0.13885184  0.09891274     0.79800
N230        N  0.28685133  0.18615869  0.09902460    -0.78500
C231        C  0.33373070  0.20817744  0.10591046     0.82200
N232        N  0.35405444  0.18262551  0.11316040    -0.78500
C233        C  0.32920851  0.13612241  0.11421783     0.82300
N234        N  0.28278983  0.11420446  0.10736764    -0.80200
O235        O  0.00599384  0.03297494  0.39626812    -0.86900
O236        O  0.05156786  0.11479307  0.06635474    -0.87100
O237        O  0.98238918  0.11485969  0.46146709    -0.88800
O238        O  0.11747279  0.11468418  0.46170235    -0.87500
O239        O  0.13835497  0.05984430  0.47308218    -0.87100
O240        O  0.90685554  0.06092651  0.47325549    -0.88500
O241        O  0.06805549  0.14732923  0.01689778    -0.87000
O242        O  0.04238891  0.10215930  0.42331476    -0.86600
Zr243      Zr  0.03482623  0.08466042  0.47768904     2.84300
O244        O  0.06071055  0.05677795  0.01879215    -1.08500
O245        O  0.96281164  0.02633532  0.45809340    -1.09300
C246        C  0.02956004  0.07846744  0.39782588     1.06200
C247        C  0.06954373  0.14943446  0.04728742     1.06100
C248        C  0.93760465  0.09919107  0.46113579     1.09100
C249        C  0.14627390  0.09850334  0.46131131     1.06900
H250        H  0.97910245  0.08495475  0.02556304     0.32400
O251        O  0.98204777  0.05868025  0.01912963    -1.29500
H252        H  0.06626938  0.03459057  0.43925675     0.32100
O253        O  0.04484667  0.02470519  0.45669105    -1.31200
O254        O  0.97479369  0.96433374  0.10164269    -0.86900
O255        O  0.93271374  0.88309266  0.43053427    -0.88400
O256        O  0.89805570  0.04072735  0.04404726    -0.87000
O257        O  0.12774684  0.04161172  0.04044674    -0.87100
O258        O  0.07986705  0.95234209  0.45558096    -0.86800
O259        O  0.85371995  0.95696591  0.45712168    -0.86600
O260        O  0.86780498  0.88285475  0.03845121    -0.86900
O261        O  0.00231578  0.88207842  0.03619449    -0.86400
O262        O  0.84627109  0.93745177  0.02785808    -0.87500
O263        O  0.07749383  0.93627952  0.02396297    -0.86600
O264        O  0.95431843  0.05641011  0.08196256    -0.87000
O265        O  0.89213187  0.94078098  0.41808804    -0.86800
O266        O  0.02478179  0.93823586  0.41710630    -0.86400
O267        O  0.08958631  0.05836564  0.07932062    -0.86800
O268        O  0.94121006  0.89500481  0.07467922    -0.87100
O269        O  0.91891832  0.85128113  0.98015837    -0.88400
Zr270      Zr  0.00801488  0.03040145  0.06138554     2.83100
Zr271      Zr  0.97312439  0.96711861  0.43662808     2.83500
Zr272      Zr  0.91032398  0.99960394  0.00021685     2.84100
Zr273      Zr  0.07231227  0.99815128  0.99828773     2.83400
Zr274      Zr  0.94930164  0.91214835  0.02032037     2.84200
O275        O  0.00095541  0.93976156  0.47822115    -1.09000
O276        O  0.93760376  0.97139197  0.04076921    -1.08500
C277        C  0.95239335  0.91880354  0.10011902     1.06100
C278        C  0.91726506  0.84834095  0.44944323     1.08800
C279        C  0.91892249  0.05883147  0.07049328     1.06300
C280        C  0.12672312  0.06081556  0.06674764     1.06700
C281        C  0.05889001  0.93422770  0.42921562     1.06300
C282        C  0.85495191  0.93827193  0.43061435     1.05800
C283        C  0.83919703  0.89919485  0.03996825     1.06200
C284        C  0.04721276  0.89815901  0.03648133     1.05700
H285        H  0.89155198  0.91258742  0.47367099     0.32400
O286        O  0.92097206  0.93884404  0.47972717    -1.30100
H287        H  0.03204576  0.96203067  0.05789871     0.32400
O288        O  0.01999798  0.97187606  0.04059020    -1.31500
C289        C  0.72296435  0.85185267  0.09483697     0.79800
N290        N  0.70045752  0.81030091  0.10973711    -0.78500
C291        C  0.66248000  0.80000941  0.12781636     0.82200
N292        N  0.64770765  0.83100347  0.13117404    -0.78500
C293        C  0.67007805  0.87254432  0.11723201     0.82300
N294        N  0.70827492  0.88352106  0.09913031    -0.80200
C295        C  0.72045267  0.85497480  0.40003165     0.79800
N296        N  0.69713564  0.80766209  0.40138364    -0.78500
C297        C  0.65010829  0.78351640  0.39506044     0.82200
N298        N  0.62791372  0.80688489  0.38687267    -0.78500
C299        C  0.65081665  0.85312494  0.38421028     0.82300
N300        N  0.69731185  0.87728082  0.39057573    -0.80200
C301        C  0.89228044  0.80009572  0.14743018     0.79800
N302        N  0.91642757  0.77624564  0.14993086    -0.78500
C303        C  0.89283310  0.72912280  0.15285712     0.82200
N304        N  0.84574275  0.70661090  0.15348113    -0.78500
C305        C  0.82106273  0.72908064  0.15196069     0.82300
N306        N  0.84434505  0.77620844  0.14910714    -0.80200
C307        C  0.85608800  0.71780687  0.41349738     0.79800
N308        N  0.88231123  0.69815823  0.40518937    -0.78500
C309        C  0.86097739  0.65397814  0.39417454     0.82200
N310        N  0.81412421  0.63055066  0.39075216    -0.78500
C311        C  0.78804487  0.65049178  0.39750105     0.82300
N312        N  0.80916644  0.69465081  0.40848755    -0.80200
C313        C  0.91722389  0.84998640  0.14004999    -0.13700
C314        C  0.93659975  0.88821496  0.12753178    -0.15300
C315        C  0.79686166  0.87509121  0.05826345    -0.13700
C316        C  0.76274125  0.86260789  0.07484994    -0.15300
C317        C  0.80999592  0.90874250  0.41568740    -0.13700
C318        C  0.76989417  0.88240826  0.40761124    -0.15300
C319        C  0.89616061  0.80316104  0.43551168    -0.13700
C320        C  0.87824429  0.76439929  0.42508527    -0.15300
C321        C  0.21213120  0.11389206  0.09062833    -0.13700
C322        C  0.17183039  0.08945453  0.08195950    -0.15300
C323        C  0.08947754  0.88101963  0.40375019    -0.13700
C324        C  0.07390518  0.90525288  0.41315823    -0.15300
C325        C  0.18967587  0.12284581  0.44450742    -0.13700
C326        C  0.22480053  0.13487137  0.42925809    -0.15300
C327        C  0.89750427  0.13828480  0.42889889    -0.13700
C328        C  0.91898022  0.12437775  0.44445540    -0.15300
C329        C  0.88966713  0.11275099  0.09693646    -0.13700
C330        C  0.90334242  0.08715429  0.08697111    -0.15300
C331        C  0.09006587  0.86357413  0.07043688    -0.13700
C332        C  0.06669933  0.87473483  0.05437356    -0.15300
C333        C  0.09354788  0.19471102  0.06099457    -0.13700
C334        C  0.11431689  0.23344879  0.07140358    -0.15300
C335        C  0.04504751  0.10903252  0.37039565    -0.13700
C336        C  0.06489129  0.14715633  0.35776565    -0.15300
C337        C  0.64799532  0.94766291  0.17057207    -0.13800
C338        C  0.60133692  0.93412244  0.16250153     0.08400
C339        C  0.58305076  0.90976789  0.13407475    -0.13800
C340        C  0.60905547  0.89515699  0.11601763    -0.13800
C341        C  0.65402750  0.90526995  0.12569469     0.08400
C342        C  0.67401193  0.93334962  0.15234929    -0.13800
H343        H  0.66367008  0.96715329  0.19197707     0.12300
H344        H  0.54762960  0.89944718  0.12679684     0.12300
H345        H  0.59243952  0.87235707  0.09605014     0.12300
H346        H  0.70796829  0.94025994  0.16088993     0.12300
C347        C  0.75240968  0.09345923  0.16921799    -0.13800
C348        C  0.75979798  0.12344011  0.14415458     0.08400
C349        C  0.72831577  0.13982117  0.13899431    -0.13800
C350        C  0.69008303  0.12671042  0.15873686    -0.13800
C351        C  0.68301966  0.09750745  0.18436400     0.08400
C352        C  0.71452770  0.08081400  0.18928054    -0.13800
H353        H  0.77695382  0.08136948  0.17406190     0.12300
H354        H  0.73376229  0.16340110  0.11988954     0.12300
H355        H  0.66613827  0.13951517  0.15391117     0.12300
H356        H  0.70994312  0.05784485  0.20860122     0.12300
C357        C  0.67731364  0.10499893  0.36317727    -0.13800
C358        C  0.66494184  0.06826417  0.34185297     0.08400
C359        C  0.69346622  0.04761974  0.34024523    -0.13800
C360        C  0.73515266  0.06558025  0.35769729    -0.13800
C361        C  0.74934435  0.10483472  0.37674239     0.08400
C362        C  0.71939009  0.12345864  0.38009450    -0.13800
H363        H  0.65616096  0.12159269  0.36516153     0.12300
H364        H  0.68485061  0.01908185  0.32426752     0.12300
H365        H  0.75827598  0.05145645  0.35406359     0.12300
H366        H  0.73026676  0.15452011  0.39403451     0.12300
C367        C  0.57801034  0.85416964  0.37028324    -0.13800
C368        C  0.62671169  0.87386412  0.36756250     0.08400
C369        C  0.65011808  0.90602498  0.34388100    -0.13800
C370        C  0.62503986  0.91696506  0.32242613    -0.13800
C371        C  0.57619318  0.89699548  0.32476133     0.08400
C372        C  0.55294459  0.86593501  0.34921634    -0.13800
H373        H  0.55921845  0.82857460  0.38814763     0.12300
H374        H  0.68742270  0.92065118  0.34077066     0.12300
H375        H  0.64412344  0.94113430  0.30391269     0.12300
H376        H  0.51547103  0.85036462  0.35185682     0.12300
C377        C  0.42383311  0.11493608  0.14526822    -0.13800
C378        C  0.40124399  0.08634718  0.17097351     0.08400
C379        C  0.35283769  0.06875821  0.17452903    -0.13800
C380        C  0.32794678  0.08084837  0.15355830    -0.13800
C381        C  0.35132474  0.11207122  0.12932016     0.08400
C382        C  0.39919260  0.12817911  0.12486653    -0.13800
H383        H  0.46088765  0.12857628  0.14165221     0.12300
H384        H  0.33434421  0.04675276  0.19413098     0.12300
H385        H  0.29127698  0.06873887  0.15785090     0.12300
H386        H  0.41797187  0.15277983  0.10646786     0.12300
C387        C  0.31946399  0.91297857  0.12904832    -0.13800
C388        C  0.32375366  0.93709663  0.15729392     0.08400
C389        C  0.28957663  0.94968133  0.16415713    -0.13800
C390        C  0.25068806  0.93594262  0.14442732    -0.13800
C391        C  0.24433127  0.90811813  0.11792385     0.08400
C392        C  0.27988104  0.89820272  0.10977729    -0.13800
H393        H  0.34505300  0.90278082  0.12289143     0.12300
H394        H  0.29122662  0.96767991  0.18582288     0.12300
H395        H  0.22297610  0.94246867  0.15191979     0.12300
H396        H  0.27492490  0.87531464  0.09009237     0.12300
C397        C  0.27583182  0.92635385  0.31914885    -0.13800
C398        C  0.30870890  0.91185961  0.32561847     0.08400
C399        C  0.30444897  0.88756063  0.35347070    -0.13800
C400        C  0.26645082  0.87528459  0.37327174    -0.13800
C401        C  0.23255491  0.88781188  0.36588800     0.08400
C402        C  0.23830806  0.91479705  0.33930968    -0.13800
H403        H  0.27830634  0.94558856  0.29805460     0.12300
H404        H  0.32959987  0.87670040  0.35947445     0.12300
H405        H  0.26219548  0.85394363  0.39356115     0.12300
H406        H  0.21196696  0.92389724  0.33283247     0.12300
C407        C  0.33610845  0.04820225  0.33387511    -0.13800
C408        C  0.38297709  0.06112826  0.34064850     0.08400
C409        C  0.40359039  0.08683540  0.36826494    -0.13800
C410        C  0.37949755  0.10279984  0.38697707    -0.13800
C411        C  0.33400755  0.09268553  0.37888218     0.08400
C412        C  0.31177731  0.06363990  0.35295484    -0.13800
H413        H  0.31902856  0.02833933  0.31288071     0.12300
H414        H  0.43945937  0.09725818  0.37435333     0.12300
H415        H  0.39787286  0.12646219  0.40623582     0.12300
H416        H  0.27733683  0.05678288  0.34561056     0.12300
C417        C  0.08699240  0.72108442  0.18716092    -0.13800
C418        C  0.10600803  0.69187355  0.18180511     0.08400
C419        C  0.13113885  0.69713389  0.15395476    -0.13800
C420        C  0.13718738  0.73091630  0.13216913    -0.13800
C421        C  0.11704766  0.75899505  0.13732207     0.08400
C422        C  0.09183637  0.75386328  0.16489569    -0.13800
H423        H  0.06809917  0.71845173  0.20853766     0.12300
H424        H  0.14607123  0.67515508  0.14894800     0.12400
H425        H  0.15847010  0.73589726  0.11155359     0.12300
H426        H  0.07800839  0.77679357  0.16994833     0.12300
C427        C  0.90770566  0.62314810  0.15746419    -0.13800
C428        C  0.94160393  0.63568912  0.18131418     0.08400
C429        C  0.96384592  0.68196307  0.19238663    -0.13800
C430        C  0.95166851  0.71416093  0.18078649    -0.13800
C431        C  0.91585053  0.70071691  0.15838885     0.08400
C432        C  0.89468580  0.65506301  0.14645181    -0.13800
H433        H  0.88967570  0.58813223  0.14835362     0.12300
H434        H  0.98954525  0.69306108  0.21111518     0.12300
H435        H  0.96780864  0.74849123  0.19107118     0.12300
H436        H  0.86636480  0.64340102  0.12946957     0.12300
C437        C  0.88658976  0.56673140  0.35756946    -0.13800
C438        C  0.91374609  0.59151380  0.33169015     0.08400
C439        C  0.92788625  0.63877067  0.32923553    -0.13800
C440        C  0.91527121  0.66071173  0.35216191    -0.13800
C441        C  0.88681603  0.63543425  0.37726991     0.08400
C442        C  0.87279859  0.58841390  0.37994087    -0.13800
H443        H  0.87532549  0.53040643  0.36031162     0.12300
H444        H  0.94880428  0.65890592  0.30959604     0.12300
H445        H  0.92491846  0.69661587  0.34903341     0.12300
H446        H  0.84951144  0.56807228  0.39863674     0.12300
C447        C  0.04525251  0.67351537  0.35455365    -0.13800
C448        C  0.07745414  0.65763952  0.35041638     0.08400
C449        C  0.12004476  0.68000871  0.36667967    -0.13800
C450        C  0.13210510  0.72069841  0.38369332    -0.13800
C451        C  0.10184312  0.73966159  0.38456066     0.08400
C452        C  0.05700556  0.71389268  0.37161736    -0.13800
H453        H  0.01210835  0.65628148  0.34249335     0.12300
H454        H  0.14546019  0.66849512  0.36399578     0.12300
H455        H  0.16694422  0.73965432  0.39370303     0.12300
H456        H  0.03288718  0.72726426  0.37173653     0.12300
C457        C  0.93928845  0.28576096  0.12722599    -0.13800
C458        C  0.89481367  0.26322645  0.11345910     0.08400
C459        C  0.86903394  0.28691917  0.11171234    -0.13800
C460        C  0.88495569  0.32972429  0.12696994    -0.13800
C461        C  0.92667520  0.34906193  0.14437189     0.08400
C462        C  0.95467517  0.32795369  0.14272726    -0.13800
H463        H  0.95975045  0.26844484  0.12936807     0.12300
H464        H  0.83445082  0.27020949  0.10118325     0.12300
H465        H  0.86269885  0.34521556  0.12768146     0.12300
H466        H  0.98685849  0.34229516  0.15588764     0.12300
C467        C  0.11622161  0.43753246  0.13542483    -0.13800
C468        C  0.08832239  0.41412626  0.16138577     0.08400
C469        C  0.07377750  0.36695359  0.16516912    -0.13800
C470        C  0.08618306  0.34360655  0.14332136    -0.13800
C471        C  0.11527701  0.36742128  0.11813556     0.08400
C472        C  0.13028870  0.41449515  0.11427251    -0.13800
H473        H  0.12812910  0.47384252  0.13187740     0.12300
H474        H  0.05278863  0.34789503  0.18510516     0.12300
H475        H  0.07583595  0.30771030  0.14739306     0.12300
H476        H  0.15416322  0.43369113  0.09552566     0.12300
C477        C  0.02298676  0.31971413  0.30924765    -0.13800
C478        C  0.04902828  0.36646322  0.31899500     0.08400
C479        C  0.08303393  0.37786394  0.34259240    -0.13800
C480        C  0.09381676  0.34449503  0.35377231    -0.13800
C481        C  0.07037964  0.29869188  0.34208867     0.08400
C482        C  0.03328735  0.28617575  0.32082091    -0.13800
H483        H  0.99598924  0.30937657  0.29139897     0.12300
H484        H  0.10345817  0.41317370  0.35087522     0.12300
H485        H  0.12270617  0.35525365  0.37019233     0.12300
H486        H  0.01490205  0.25150277  0.31111416     0.12300
C487        C  0.91815090  0.32517386  0.34616626    -0.13800
C488        C  0.91073690  0.31956980  0.31339262     0.08400
C489        C  0.89552296  0.27591702  0.29971308    -0.13800
C490        C  0.88499701  0.23802340  0.31875319    -0.13800
C491        C  0.89062812  0.24342071  0.35157671     0.08400
C492        C  0.90844043  0.28732960  0.36515324    -0.13800
H493        H  0.93109625  0.35878984  0.35711903     0.12300
H494        H  0.89033094  0.27082717  0.27446376     0.12300
H495        H  0.87069126  0.20407629  0.30802133     0.12300
H496        H  0.91222926  0.29184479  0.39049867     0.12300
C497        C  0.61982559  0.67081239  0.35694881    -0.13800
C498        C  0.57096261  0.65074657  0.35376557     0.08400
C499        C  0.54807837  0.66915778  0.37145992    -0.13800
C500        C  0.57432777  0.70996519  0.38897871    -0.13800
C501        C  0.62379757  0.73296385  0.38906904     0.08400
C502        C  0.64602393  0.71123662  0.37456077    -0.13800
H503        H  0.63813504  0.65686472  0.34386607     0.12300
H504        H  0.51054475  0.65440434  0.36967261     0.12300
H505        H  0.55609260  0.72591070  0.40005444     0.12300
H506        H  0.68378705  0.72790422  0.37390679     0.12300
C507        C  0.73583212  0.65358229  0.35773020    -0.13800
C508        C  0.74200587  0.62969141  0.38262950     0.08400
C509        C  0.71098390  0.58228656  0.38598739    -0.13800
C510        C  0.67462745  0.55886441  0.36423908    -0.13800
C511        C  0.66984114  0.58238352  0.33828974     0.08400
C512        C  0.70081987  0.63002436  0.33543029    -0.13800
H513        H  0.76058041  0.68973602  0.35397010     0.12300
H514        H  0.71635039  0.56307726  0.40453649     0.12300
H515        H  0.65118162  0.52226552  0.36727040     0.12300
H516        H  0.69849466  0.64927173  0.31565600     0.12300
C517        C  0.70167547  0.62285320  0.15561362    -0.13800
C518        C  0.68360252  0.63169812  0.18310225     0.08400
C519        C  0.70812898  0.67665102  0.19637734    -0.13800
C520        C  0.75029752  0.71081567  0.18363010    -0.13800
C521        C  0.77002703  0.70078428  0.15770320     0.08400
C522        C  0.74463499  0.65676929  0.14335586    -0.13800
H523        H  0.68390033  0.58908786  0.14450401     0.12300
H524        H  0.69588197  0.68509613  0.21767191     0.12300
H525        H  0.76946596  0.74370281  0.19577956     0.12300
H526        H  0.75949687  0.64771267  0.12365118     0.12300
C527        C  0.56280543  0.69264433  0.16054868    -0.13800
C528        C  0.58205033  0.68742526  0.18884419     0.08400
C529        C  0.62954416  0.71825062  0.19547758    -0.13800
C530        C  0.65727404  0.75257913  0.17401323    -0.13800
C531        C  0.63778726  0.75734828  0.14585005     0.08400
C532        C  0.59028683  0.72761950  0.13950100    -0.13800
H533        H  0.52653041  0.66957182  0.15453663     0.12300
H534        H  0.64539796  0.71572773  0.21721520     0.12300
H535        H  0.69333094  0.77667513  0.18002315     0.12300
H536        H  0.57422747  0.73218831  0.11848053     0.12300
C537        C  0.32529017  0.42933636  0.13336616    -0.13800
C538        C  0.32521611  0.40699057  0.16141023     0.08400
C539        C  0.29012221  0.36096800  0.16590898    -0.13800
C540        C  0.25585700  0.33793362  0.14302983    -0.13800
C541        C  0.25446869  0.36118961  0.11602846     0.08400
C542        C  0.28963817  0.40680854  0.11107441    -0.13800
H543        H  0.35195486  0.46465783  0.12911336     0.12300
H544        H  0.28878354  0.34272774  0.18730132     0.12300
H545        H  0.22794062  0.30330181  0.14780913     0.12300
H546        H  0.28802576  0.42570072  0.09082839     0.12300
C547        C  0.43831221  0.32226569  0.12906341    -0.13800
C548        C  0.41665161  0.34074924  0.14803499     0.08400
C549        C  0.36764970  0.32024045  0.14662785    -0.13800
C550        C  0.34034948  0.28014083  0.12901096    -0.13800
C551        C  0.36144950  0.25845059  0.11302902     0.08400
C552        C  0.41087141  0.28115138  0.11193168    -0.13800
H553        H  0.47592895  0.33718320  0.12956012     0.12300
H554        H  0.35020518  0.33345478  0.16123711     0.12300
H555        H  0.30268145  0.26355981  0.13081036     0.12300
H556        H  0.42823516  0.26510529  0.09983081     0.12300
C557        C  0.39852641  0.27425032  0.37000374    -0.13800
C558        C  0.35227661  0.24197014  0.36240141     0.08400
C559        C  0.33327250  0.24447036  0.33339943    -0.13800
C560        C  0.36044573  0.27895300  0.31203479    -0.13800
C561        C  0.40681308  0.31192139  0.31963748     0.08400
C562        C  0.42545794  0.30933205  0.34896550    -0.13800
H563        H  0.41412665  0.27149660  0.39185072     0.12300
H564        H  0.29818637  0.21842585  0.32669595     0.12300
H565        H  0.34516532  0.27968571  0.28956521     0.12300
H566        H  0.46097920  0.33417928  0.35560265     0.12300
C567        C  0.27838586  0.31674007  0.30258529    -0.13800
C568        C  0.30412740  0.36093950  0.31687984     0.08400
C569        C  0.28521184  0.37003232  0.34384711    -0.13800
C570        C  0.24068791  0.33723538  0.35469222    -0.13800
C571        C  0.21430095  0.29408522  0.33938731     0.08400
C572        C  0.23441831  0.28372125  0.31382195    -0.13800
H573        H  0.29131395  0.30804641  0.28170138     0.12300
H574        H  0.30375372  0.40320663  0.35568457     0.12300
H575        H  0.22569784  0.34650935  0.37420852     0.12300
H576        H  0.21466677  0.25152639  0.30097096     0.12300
O577        O  0.47382687  0.38456346  0.80885690    -0.75700
O578        O  0.41559934  0.35273478  0.77247796    -0.54700
C579        C  0.43446728  0.35175343  0.79876013     0.78000
O580        O  0.50486292  0.58126803  0.83346367    -0.60300
O581        O  0.56997298  0.62138601  0.80350945    -0.53400
C582        C  0.54636986  0.61578110  0.82869346     0.70000
O583        O  0.37496453  0.43697026  0.81626553    -0.74900
O584        O  0.35915061  0.38515122  0.77646647    -0.55500
C585        C  0.34900649  0.39714592  0.80273517     0.76000
O586        O  0.60364332  0.51672238  0.81671559    -0.60000
O587        O  0.62591167  0.58586325  0.79351270    -0.53200
C588        C  0.63086660  0.56055465  0.81418444     0.72600
Zr589      Zr  0.53550765  0.45707761  0.78826861     2.54700
O590        O  0.55749521  0.42993819  0.83516848    -0.80600
O591        O  0.57989403  0.42366327  0.76509468    -0.94000
Zr592      Zr  0.44943284  0.50923409  0.80409980     2.64700
O593        O  0.43872738  0.49452611  0.86054088    -0.99000
O594        O  0.40076761  0.54564890  0.80562133    -0.81000
O595        O  0.46337881  0.45127172  0.78829023    -0.84400
O596        O  0.52702397  0.52185255  0.80164747    -2.19100
O597        O  0.61323727  0.55482091  0.68533694    -0.67800
O598        O  0.62904369  0.60743054  0.72474000    -0.52400
C599        C  0.63887253  0.59517396  0.69842035     0.71000
O600        O  0.38867877  0.47329342  0.68208926    -0.60700
O601        O  0.36350844  0.40501145  0.70716472    -0.52700
C602        C  0.36057928  0.42971043  0.68518042     0.72800
O603        O  0.51066011  0.61434069  0.69806277    -0.72100
O604        O  0.57303203  0.64136497  0.73149284    -0.50800
C605        C  0.55160316  0.64559809  0.70746071     0.74200
O606        O  0.48234893  0.41056231  0.66748055    -0.67400
O607        O  0.41918839  0.36978613  0.69888223    -0.54600
C608        C  0.44169558  0.37543159  0.67319700     0.72500
Zr609      Zr  0.53801151  0.48202104  0.69674182     2.77500
O610        O  0.54052530  0.49451585  0.64004800    -0.98200
O611        O  0.59011121  0.44978880  0.69220251    -0.79000
Zr612      Zr  0.45288433  0.53468551  0.71228848     2.70100
O613        O  0.44063756  0.55919208  0.66073835    -0.80200
O614        O  0.40082813  0.56245065  0.73040987    -0.99300
Zr615      Zr  0.42596564  0.41856157  0.74262209     2.21500
Zr616      Zr  0.56268613  0.57368297  0.75894945     2.11100
O617        O  0.53006734  0.54738415  0.70778465    -2.48000
O618        O  0.46575993  0.47360542  0.70626557    -0.80000
O619        O  0.57465158  0.51003625  0.74696344    -0.72200
O620        O  0.41295043  0.48180172  0.75377441    -2.33200
O621        O  0.50192601  0.42660298  0.73792889    -2.29400
O622        O  0.48601603  0.56443748  0.76289797    -0.74000
H623        H  0.54160827  0.53405981  0.82178495     0.78000
H624        H  0.38029345  0.47264036  0.75406110     0.79100
H625        H  0.54655306  0.56890959  0.69127891     0.81300
H626        H  0.50062681  0.39757664  0.73338196     0.78900
H627        H  0.36830401  0.51961667  0.80556180     0.42000
H628        H  0.40946861  0.59032640  0.71765621     0.40900
H629        H  0.45469308  0.54687341  0.64558927     0.40600
H630        H  0.54024534  0.52398571  0.63774083     0.38500
H631        H  0.56931177  0.41595558  0.69321762     0.41700
H632        H  0.56739589  0.39311788  0.77520850     0.36500
H633        H  0.54559201  0.44020581  0.85311872     0.42600
H634        H  0.47022475  0.50327391  0.86884049     0.39000
H635        H  0.57238973  0.50181752  0.63372114     0.43900
H636        H  0.61168514  0.44222738  0.77412755     0.42600
H637        H  0.43205018  0.51850571  0.86893353     0.42800
H638        H  0.36964311  0.53934635  0.72227339     0.43100
O639        O  0.05551141  0.44310749  0.81618024    -0.75700
O640        O  0.02279563  0.39155803  0.77575616    -0.54700
C641        C  0.04193494  0.40310390  0.80310053     0.78000
O642        O  0.91125058  0.52423829  0.81088156    -0.60300
O643        O  0.95844504  0.59392632  0.78857972    -0.53400
C644        C  0.92757472  0.56816740  0.80859252     0.70000
O645        O  0.91530722  0.39201560  0.80555184    -0.74900
O646        O  0.93453812  0.35889081  0.76583724    -0.55500
C647        C  0.91908968  0.35839417  0.79352004     0.76000
O648        O  0.07316106  0.58843484  0.83016227    -0.60000
O649        O  0.04939222  0.62876704  0.79888879    -0.53200
C650        C  0.06653059  0.62307239  0.82458257     0.72600
Zr651      Zr  0.05826227  0.51687126  0.80131482     2.54700
O652        O  0.05942233  0.50728767  0.85816164    -0.80600
O653        O  0.14289235  0.55081187  0.80226616    -0.94000
Zr654      Zr  0.92068931  0.46309476  0.78490147     2.64700
O655        O  0.87521676  0.43441431  0.83305381    -0.99000
O656        O  0.84181280  0.42587559  0.76305436    -0.81000
O657        O  0.98747668  0.45847526  0.78494858    -0.84400
O658        O  0.99294582  0.52896228  0.79805659    -2.19100
O659        O  0.10007074  0.61907441  0.69299881    -0.67800
O660        O  0.06579587  0.64683060  0.72655390    -0.52400
C661        C  0.09046921  0.65040112  0.70223443     0.71000
O662        O  0.93046166  0.41862872  0.66310599    -0.60700
O663        O  0.95431116  0.37879162  0.69458096    -0.52700
C664        C  0.93711084  0.38411643  0.66885836     0.72800
O665        O  0.93566420  0.55860130  0.68261566    -0.72100
O666        O  0.97362487  0.61240860  0.72112614    -0.50800
C667        C  0.94959218  0.59888511  0.69555760     0.74200
O668        O  0.08551881  0.48029258  0.68025323    -0.67400
O669        O  0.04372876  0.41273334  0.70615980    -0.54600
C670        C  0.07132603  0.43704998  0.68420937     0.72500
Zr671      Zr  0.08083107  0.54132685  0.70967925     2.77500
O672        O  0.12671975  0.56243283  0.66138124    -0.98200
O673        O  0.15820932  0.57215533  0.73324010    -0.79000
Zr674      Zr  0.94249058  0.48785011  0.69325075     2.70100
O675        O  0.94528047  0.50191329  0.63677356    -0.80200
O676        O  0.85760737  0.44946460  0.68982147    -0.99300
Zr677      Zr  0.99289504  0.42603011  0.73946717     2.21500
Zr678      Zr  0.00877070  0.58009958  0.75474129     2.11100
O679        O  0.01558106  0.55346548  0.70376754    -2.48000
O680        O  0.00722030  0.48034505  0.70266017    -0.80000
O681        O  0.07656422  0.57157700  0.75981323    -0.72200
O682        O  0.92423988  0.43292458  0.73455698    -2.33200
O683        O  0.06842167  0.48909983  0.75153381    -2.29400
O684        O  0.93362884  0.51566403  0.74324524    -0.74000
H685        H  0.99017397  0.54132224  0.81797652     0.78000
H686        H  0.89705299  0.40384778  0.72987880     0.79100
H687        H  0.01939419  0.57435612  0.68697677     0.81300
H688        H  0.09198970  0.48000327  0.75236536     0.78900
H689        H  0.82685626  0.39411231  0.77148881     0.42000
H690        H  0.85118035  0.46878800  0.67516972     0.40900
H691        H  0.97898539  0.51909815  0.63174785     0.40600
H692        H  0.10811245  0.56870285  0.64576548     0.38500
H693        H  0.17179184  0.60608506  0.73218396     0.41700
H694        H  0.14822469  0.52445407  0.80624512     0.36500
H695        H  0.02611238  0.49049583  0.86424098     0.42600
H696        H  0.89579991  0.45461735  0.85015270     0.39000
H697        H  0.15438112  0.59293789  0.66580908     0.43900
H698        H  0.15282200  0.56914913  0.82206588     0.42600
H699        H  0.84991192  0.44233030  0.83130030     0.42800
H700        H  0.84868006  0.42071989  0.67775313     0.43100
O701        O  0.37966793  0.91304858  0.81251082    -0.75700
O702        O  0.34977031  0.94626589  0.78011740    -0.54700
C703        C  0.34815849  0.92366335  0.80482419     0.78000
O704        O  0.59375876  0.06509580  0.82657107    -0.60300
O705        O  0.62334067  0.03069549  0.79460245    -0.53400
C706        C  0.62475427  0.05338142  0.81959923     0.70000
O707        O  0.45227093  0.05831239  0.82801397    -0.74900
O708        O  0.39336791  0.03320738  0.79189265    -0.55500
C709        C  0.41138667  0.05016318  0.81897873     0.76000
O710        O  0.50920777  0.90169442  0.80992566    -0.60000
O711        O  0.57576334  0.94004940  0.78132143    -0.53200
C712        C  0.55182337  0.91295855  0.80358826     0.72600
Zr713      Zr  0.44955560  0.91802288  0.78823839     2.54700
O714        O  0.42632364  0.87321987  0.83665786    -0.80600
O715        O  0.40761376  0.84095421  0.76511447    -0.94000
Zr716      Zr  0.51891969  0.05450098  0.80553650     2.64700
O717        O  0.51916803  0.05516196  0.86306477    -0.99000
O718        O  0.55824230  0.13852074  0.80767218    -0.81000
O719        O  0.45286199  0.98794506  0.79183039    -0.84400
O720        O  0.52206556  0.98550348  0.79884591    -2.19100
O721        O  0.52964384  0.93435511  0.67470941    -0.67800
O722        O  0.58924807  0.96175197  0.71048818    -0.52400
C723        C  0.57100985  0.94355789  0.68364064     0.71000
O724        O  0.46827061  0.08241384  0.68735098    -0.60700
O725        O  0.40572648  0.05325736  0.71985587    -0.52700
C726        C  0.42671383  0.07376169  0.69465080     0.72800
O727        O  0.60987504  0.09316512  0.69659677    -0.72100
O728        O  0.63483031  0.05134843  0.72489118    -0.50800
C729        C  0.64017878  0.08044012  0.70342558     0.74200
O730        O  0.39431265  0.93851654  0.67269571    -0.67400
O731        O  0.36028315  0.96468113  0.70768609    -0.54600
C732        C  0.36181575  0.94746350  0.68085687     0.72500
Zr733      Zr  0.46359263  0.94107256  0.69675029     2.77500
O734        O  0.45573404  0.93386650  0.63953037    -0.98200
O735        O  0.42416304  0.85705693  0.69598495    -0.79000
Zr736      Zr  0.53198451  0.07747427  0.71404099     2.70100
O737        O  0.55583373  0.11921526  0.66442993    -0.80200
O738        O  0.56445543  0.15613159  0.73405384    -0.99300
Zr739      Zr  0.41617377  0.99871358  0.75022748     2.21500
Zr740      Zr  0.56671591  0.99659354  0.75223738     2.11100
O741        O  0.53608267  0.00934514  0.70446145    -2.48000
O742        O  0.46484556  0.00833222  0.70978560    -0.80000
O743        O  0.49542108  0.92629329  0.74291062    -0.72200
O744        O  0.48673440  0.06974009  0.75964841    -2.33200
O745        O  0.41446782  0.92681962  0.74147373    -2.29400
O746        O  0.56688366  0.06787626  0.76056001    -0.74000
H747        H  0.53638858  0.98164014  0.81760923     0.78000
H748        H  0.48117078  0.09547499  0.76252612     0.79100
H749        H  0.55527664  0.01402669  0.68623670     0.81300
H750        H  0.38311267  0.90154564  0.73803110     0.78900
H751        H  0.53306860  0.14592967  0.81196737     0.42000
H752        H  0.59859257  0.16978974  0.73118847     0.40900
H753        H  0.55279586  0.09591569  0.64858307     0.40600
H754        H  0.48546424  0.95914536  0.63131542     0.38500
H755        H  0.39619112  0.84774122  0.68255117     0.41700
H756        H  0.37526537  0.82808525  0.77295063     0.36500
H757        H  0.43636793  0.89640464  0.85389031     0.42600
H758        H  0.52804980  0.03186170  0.86932966     0.39000
H759        H  0.45663762  0.90525679  0.63435763     0.43900
H760        H  0.42016437  0.82330867  0.77630937     0.42600
H761        H  0.54635675  0.08520190  0.86915452     0.42800
H762        H  0.55499191  0.17183580  0.71826409     0.43100
C763        C  0.09111528  0.19814839  0.85094771     0.79800
N764        N  0.06799338  0.22308079  0.84954330    -0.78500
C765        C  0.09254722  0.27018961  0.84683047     0.82200
N766        N  0.13959678  0.29163861  0.84534261    -0.78500
C767        C  0.16327498  0.26810843  0.84593496     0.82300
N768        N  0.13898565  0.22097540  0.84860465    -0.80200
C769        C  0.13664718  0.27770107  0.58399827     0.79800
N770        N  0.18325322  0.29774216  0.58979509    -0.78500
C771        C  0.20678238  0.34179154  0.60088415     0.82200
N772        N  0.18334581  0.36471751  0.60702328    -0.78500
C773        C  0.13673535  0.34438100  0.60260046     0.82300
N774        N  0.11302399  0.30032300  0.59150572    -0.80200
C775        C  0.12079745  0.85322269  0.58905557     0.79800
N776        N  0.16687363  0.88556688  0.59316439    -0.78500
C777        C  0.19558344  0.87436597  0.60964065     0.82200
N778        N  0.17804233  0.83204705  0.62224946    -0.78500
C779        C  0.13252402  0.80058679  0.61922055     0.82300
N780        N  0.10343709  0.81111319  0.60285361    -0.80200
C781        C  0.86733125  0.13944664  0.60538093     0.79800
N782        N  0.82379384  0.11826193  0.61799135    -0.78500
C783        C  0.80272772  0.14329539  0.62570600     0.82200
N784        N  0.82538351  0.18928670  0.62111750    -0.78500
C785        C  0.86915931  0.21139248  0.60958162     0.82300
N786        N  0.89072894  0.18642563  0.60198442    -0.80200
C787        C  0.86994009  0.15135684  0.90916641     0.79800
N788        N  0.89146824  0.19105172  0.89224533    -0.78500
C789        C  0.86631606  0.20113266  0.87145143     0.82200
N790        N  0.82007163  0.17215022  0.86798922    -0.78500
C791        C  0.79808180  0.13291602  0.88477357     0.82300
N792        N  0.82313229  0.12178789  0.90513563    -0.80200
C793        C  0.26674244  0.14675345  0.91150027     0.79800
N794        N  0.29092861  0.18913170  0.89811089    -0.78500
C795        C  0.32976644  0.19987334  0.88105185     0.82200
N796        N  0.34364786  0.16829995  0.87690553    -0.78500
C797        C  0.31942443  0.12573939  0.88928378     0.82300
N798        N  0.28029438  0.11439268  0.90643847    -0.80200
C799        C  0.11523078  0.85795910  0.89573738     0.79800
N800        N  0.16081713  0.88347832  0.88737152    -0.78500
C801        C  0.18659312  0.86251066  0.88177610     0.82200
N802        N  0.16648225  0.81627138  0.88393541    -0.78500
C803        C  0.12088915  0.78986846  0.89088720     0.82300
N804        N  0.09467620  0.81079476  0.89664281    -0.80200
C805        C  0.25983160  0.13719083  0.60001303     0.79800
N806        N  0.28523327  0.18452669  0.60012866    -0.78500
C807        C  0.33219003  0.20638545  0.60682921     0.82200
N808        N  0.35237183  0.18065851  0.61386624    -0.78500
C809        C  0.32739833  0.13420139  0.61497448     0.82300
N810        N  0.28093486  0.11241343  0.60833425    -0.80200
O811        O  0.00627307  0.03386428  0.89636943    -0.86900
O812        O  0.04980933  0.11295228  0.56675686    -0.87100
O813        O  0.98277477  0.11576456  0.96160335    -0.88800
O814        O  0.11829870  0.11568483  0.96218780    -0.87500
O815        O  0.13883266  0.06047701  0.97320147    -0.87100
O816        O  0.90733267  0.06228913  0.97397688    -0.88500
O817        O  0.06703990  0.14569938  0.51736629    -0.87000
O818        O  0.04300507  0.10305797  0.92337952    -0.86600
Zr819      Zr  0.03544103  0.08570681  0.97774176     2.84300
O820        O  0.06005303  0.05590621  0.51889280    -1.08500
O821        O  0.96327532  0.02745628  0.95828656    -1.09300
C822        C  0.03000308  0.07935464  0.89791082     1.06200
C823        C  0.06799989  0.14762937  0.54777312     1.06100
C824        C  0.93802440  0.10034541  0.96159844     1.09100
C825        C  0.14700171  0.09937432  0.96172797     1.06900
H826        H  0.97802166  0.08348653  0.52522061     0.32400
O827        O  0.98104656  0.05723992  0.51882121    -1.29500
H828        H  0.06674442  0.03553074  0.93933443     0.32100
O829        O  0.04530522  0.02561814  0.95676476    -1.31200
O830        O  0.97355312  0.96294188  0.60136983    -0.86900
O831        O  0.93264000  0.88405140  0.93078849    -0.88400
O832        O  0.89668114  0.03933317  0.54320080    -0.87000
O833        O  0.12671681  0.04045591  0.54093155    -0.87100
O834        O  0.07994182  0.95297031  0.95546181    -0.86800
O835        O  0.85419039  0.95787456  0.95782777    -0.86600
O836        O  0.86702507  0.88135013  0.53801934    -0.86900
O837        O  0.00218714  0.88120074  0.53571069    -0.86400
O838        O  0.84557963  0.93605586  0.52758948    -0.87500
O839        O  0.07735223  0.93562875  0.52360025    -0.86600
O840        O  0.95271392  0.05500218  0.58128486    -0.87000
O841        O  0.89222309  0.94146706  0.91863466    -0.86800
O842        O  0.02499567  0.93921996  0.91696491    -0.86400
O843        O  0.08795821  0.05666241  0.57967283    -0.86800
O844        O  0.94047300  0.89370300  0.57432775    -0.87100
O845        O  0.91908543  0.85023906  0.47987146    -0.88400
Zr846      Zr  0.00670327  0.02889757  0.56118705     2.83100
Zr847      Zr  0.97345620  0.96809574  0.93681741     2.83500
Zr848      Zr  0.90947849  0.99816881  0.49974366     2.84100
Zr849      Zr  0.07192507  0.99749237  0.49829658     2.83400
Zr850      Zr  0.94872665  0.91093875  0.52000937     2.84200
O851        O  0.00124852  0.94044972  0.97831092    -1.09000
O852        O  0.93653124  0.96987364  0.54039570    -1.08500
C853        C  0.95141343  0.91745501  0.59977942     1.06100
C854        C  0.91697001  0.84930518  0.94971461     1.08800
C855        C  0.91740061  0.05746844  0.56966398     1.06300
C856        C  0.12528443  0.05928511  0.56730989     1.06700
C857        C  0.05903249  0.93505176  0.92904683     1.06300
C858        C  0.85513700  0.93893830  0.93135055     1.05800
C859        C  0.83841456  0.89770950  0.53960944     1.06200
C860        C  0.04712434  0.89740763  0.53599880     1.05700
H861        H  0.89223912  0.91396339  0.97420977     0.32400
O862        O  0.92171725  0.94026194  0.98014627    -1.30100
H863        H  0.03126723  0.96085066  0.55772145     0.32400
O864        O  0.01924894  0.97072830  0.54041096    -1.31500
C865        C  0.72085312  0.85001718  0.59338433     0.79800
N866        N  0.69722315  0.80794907  0.60754493    -0.78500
C867        C  0.65841205  0.79738755  0.62479672     0.82200
N868        N  0.64410566  0.82873069  0.62822083    -0.78500
C869        C  0.66765120  0.87085059  0.61521433     0.82300
N870        N  0.70662146  0.88203980  0.59786584    -0.80200
C871        C  0.72044771  0.85496109  0.90101932     0.79800
N872        N  0.69732156  0.80767173  0.90263474    -0.78500
C873        C  0.65038480  0.78321978  0.89603750     0.82200
N874        N  0.62809078  0.80624966  0.88724320    -0.78500
C875        C  0.65085255  0.85246852  0.88425306     0.82300
N876        N  0.69724222  0.87692519  0.89096264    -0.80200
C877        C  0.89106535  0.79861701  0.64640269     0.79800
N878        N  0.91489696  0.77443311  0.64864278    -0.78500
C879        C  0.89094814  0.72727018  0.65124607     0.82200
N880        N  0.84388767  0.70509938  0.65181106    -0.78500
C881        C  0.81955024  0.72791160  0.65059059     0.82300
N882        N  0.84315094  0.77506366  0.64808155    -0.80200
C883        C  0.85536937  0.71901315  0.91301209     0.79800
N884        N  0.88149389  0.69919741  0.90476753    -0.78500
C885        C  0.86005083  0.65506720  0.89360449     0.82200
N886        N  0.81323292  0.63190634  0.88993419    -0.78500
C887        C  0.78729251  0.65201403  0.89663253     0.82300
N888        N  0.80849265  0.69608150  0.90778999    -0.80200
C889        C  0.91627220  0.84856984  0.63944921    -0.13700
C890        C  0.93566854  0.88689167  0.62713526    -0.15300
C891        C  0.79585899  0.87347250  0.55776131    -0.13700
C892        C  0.76133509  0.86092374  0.57400026    -0.15300
C893        C  0.80999192  0.90914161  0.91669763    -0.13700
C894        C  0.76985162  0.88267116  0.90872967    -0.15300
C895        C  0.89552688  0.80408143  0.93573104    -0.13700
C896        C  0.87755249  0.76545411  0.92499842    -0.15300
C897        C  0.21035609  0.11227516  0.59171435    -0.13700
C898        C  0.17015235  0.08778844  0.58285945    -0.15300
C899        C  0.08978599  0.88188298  0.90376088    -0.13700
C900        C  0.07408451  0.90612110  0.91294730    -0.15300
C901        C  0.19063632  0.12387778  0.94518318    -0.13700
C902        C  0.22586599  0.13586537  0.93004416    -0.15300
C903        C  0.89755660  0.13912840  0.92945081    -0.13700
C904        C  0.91932610  0.12551119  0.94496665    -0.15300
C905        C  0.88793474  0.11144053  0.59576217    -0.13700
C906        C  0.90172099  0.08584880  0.58596117    -0.15300
C907        C  0.09025177  0.86323101  0.57002684    -0.13700
C908        C  0.06677845  0.87410810  0.55384043    -0.15300
C909        C  0.09150710  0.19274306  0.56163340    -0.13700
C910        C  0.11184769  0.23136313  0.57220329    -0.15300
C911        C  0.04545335  0.10996202  0.87051552    -0.13700
C912        C  0.06528414  0.14823438  0.85809752    -0.15300
C913        C  0.64661893  0.94598107  0.66960347    -0.13800
C914        C  0.60009208  0.93320509  0.66164992     0.08400
C915        C  0.58161351  0.90929284  0.63308632    -0.13800
C916        C  0.60722754  0.89444681  0.61476109    -0.13800
C917        C  0.65207912  0.90386254  0.62424562     0.08400
C918        C  0.67226183  0.93142565  0.65110958    -0.13800
H919        H  0.66246962  0.96509173  0.69110346     0.12300
H920        H  0.54630174  0.89951067  0.62586544     0.12300
H921        H  0.59037928  0.87203560  0.59465832     0.12300
H922        H  0.70607702  0.93778408  0.65955471     0.12300
C923        C  0.75139495  0.09292837  0.66813181    -0.13800
C924        C  0.75888118  0.12330044  0.64331397     0.08400
C925        C  0.72788419  0.14041344  0.63870108    -0.13800
C926        C  0.68985823  0.12738847  0.65862368    -0.13800
C927        C  0.68252274  0.09749723  0.68385941     0.08400
C928        C  0.71373533  0.08035659  0.68836323    -0.13800
H929        H  0.77564987  0.08037162  0.67261929     0.12300
H930        H  0.73349862  0.16440873  0.61984745     0.12300
H931        H  0.66621905  0.14068189  0.65419330     0.12300
H932        H  0.70900633  0.05696673  0.70743290     0.12300
C933        C  0.67555487  0.10141030  0.86476020    -0.13800
C934        C  0.66486093  0.06706491  0.84170699     0.08400
C935        C  0.69443494  0.04771910  0.83892948    -0.13800
C936        C  0.73561751  0.06497893  0.85685719    -0.13800
C937        C  0.74830395  0.10226526  0.87757892     0.08400
C938        C  0.71716085  0.11922039  0.88219327    -0.13800
H939        H  0.65347232  0.11682348  0.86780179     0.12300
H940        H  0.68716430  0.02098418  0.82165297     0.12300
H941        H  0.75968077  0.05222768  0.85227130     0.12300
H942        H  0.72686359  0.14882188  0.89746206     0.12300
C943        C  0.57788195  0.85265489  0.86940239    -0.13800
C944        C  0.62670489  0.87292912  0.86725769     0.08400
C945        C  0.65047569  0.90601346  0.84413741    -0.13800
C946        C  0.62566446  0.91748123  0.82277592    -0.13800
C947        C  0.57671988  0.89705403  0.82464384     0.08400
C948        C  0.55309289  0.86490677  0.84844988    -0.13800
H949        H  0.55879481  0.82637007  0.88680132     0.12300
H950        H  0.68790702  0.92113313  0.84144632     0.12300
H951        H  0.64499650  0.94239078  0.80470531     0.12300
H952        H  0.51552229  0.84887904  0.85067853     0.12300
C953        C  0.42204471  0.11303596  0.64565145    -0.13800
C954        C  0.40026645  0.08614139  0.67219762     0.08400
C955        C  0.35218984  0.06960463  0.67662076    -0.13800
C956        C  0.32682241  0.08089747  0.65552127    -0.13800
C957        C  0.34942528  0.11027524  0.63026298     0.08400
C958        C  0.39695508  0.12548745  0.62508426    -0.13800
H959        H  0.45883044  0.12587231  0.64139967     0.12300
H960        H  0.33430986  0.04888342  0.69687619     0.12300
H961        H  0.29048769  0.06970135  0.66040377     0.12300
H962        H  0.41516994  0.14884040  0.60595145     0.12300
C963        C  0.31870727  0.91215847  0.63009229    -0.13800
C964        C  0.32343410  0.93721264  0.65794651     0.08400
C965        C  0.28977023  0.95064625  0.66437154    -0.13800
C966        C  0.25069865  0.93650646  0.64473419    -0.13800
C967        C  0.24383841  0.90767024  0.61872817     0.08400
C968        C  0.27904991  0.89712859  0.61089715    -0.13800
H969        H  0.34395950  0.90138349  0.62424521     0.12300
H970        H  0.29195402  0.96962236  0.68565950     0.12300
H971        H  0.22330197  0.94367458  0.65193623     0.12300
H972        H  0.27374515  0.87357948  0.59157293     0.12300
C973        C  0.27727429  0.92797012  0.82136754    -0.13800
C974        C  0.30849258  0.91098343  0.82634659     0.08400
C975        C  0.30250356  0.88349935  0.85278145    -0.13800
C976        C  0.26472468  0.87118417  0.87277957    -0.13800
C977        C  0.23261745  0.88663867  0.86700335     0.08400
C978        C  0.23996482  0.91634127  0.84176418    -0.13800
H979        H  0.28095035  0.94937435  0.80126733     0.12300
H980        H  0.32614631  0.87030268  0.85750438     0.12300
H981        H  0.25920921  0.84763906  0.89192607     0.12300
H982        H  0.21499957  0.92773339  0.83642915     0.12300
C983        C  0.33680584  0.04937639  0.83387370    -0.13800
C984        C  0.38323992  0.06119525  0.84119664     0.08400
C985        C  0.40313245  0.08543830  0.86941813    -0.13800
C986        C  0.37891468  0.10123536  0.88819609    -0.13800
C987        C  0.33398406  0.09233249  0.87955563     0.08400
C988        C  0.31231634  0.06452116  0.85302508    -0.13800
H989        H  0.32027524  0.03077866  0.81237311     0.12300
H990        H  0.43860236  0.09489571  0.87597520     0.12300
H991        H  0.39688228  0.12392075  0.90797526     0.12300
H992        H  0.27835529  0.05861019  0.84527809     0.12300
C993        C  0.08405056  0.71931104  0.68651011    -0.13800
C994        C  0.10344354  0.69037719  0.68142829     0.08400
C995        C  0.12939841  0.69608989  0.65392115    -0.13800
C996        C  0.13611841  0.73027315  0.63229461    -0.13800
C997        C  0.11578696  0.75822607  0.63725064     0.08400
C998        C  0.08950260  0.75242253  0.66437092    -0.13800
H999        H  0.06451060  0.71629880  0.70762242     0.12300
H1000       H  0.14457723  0.67426916  0.64911807     0.12400
H1001       H  0.15808625  0.73568747  0.61199558     0.12300
H1002       H  0.07536635  0.77514419  0.66923802     0.12300
C1003       C  0.90438477  0.62055547  0.65683700    -0.13800
C1004       C  0.93828026  0.63318014  0.68069584     0.08400
C1005       C  0.96074779  0.67954861  0.69156063    -0.13800
C1006       C  0.94907784  0.71189168  0.67959282    -0.13800
C1007       C  0.91346257  0.69850840  0.65706401     0.08400
C1008       C  0.89181712  0.65263665  0.64547442    -0.13800
H1009       H  0.88608094  0.58541680  0.64796087     0.12300
H1010       H  0.98630651  0.69066228  0.71037452     0.12300
H1011       H  0.96544850  0.74634188  0.68969560     0.12300
H1012       H  0.86350363  0.64097855  0.62848511     0.12300
C1013       C  0.88493479  0.56685997  0.85771526    -0.13800
C1014       C  0.91194915  0.59115189  0.83165835     0.08400
C1015       C  0.92646521  0.63848123  0.82898338    -0.13800
C1016       C  0.91431821  0.66095342  0.85180771    -0.13800
C1017       C  0.88583672  0.63613532  0.87702131     0.08400
C1018       C  0.87152948  0.58906319  0.87996855    -0.13800
H1019       H  0.87340383  0.53050862  0.86064478     0.12300
H1020       H  0.94719386  0.65826028  0.80917112     0.12300
H1021       H  0.92421948  0.69688360  0.84846123     0.12300
H1022       H  0.84822989  0.56906225  0.89875773     0.12300
C1023       C  0.04494301  0.67577902  0.85219662    -0.13800
C1024       C  0.07616173  0.65847723  0.84924438     0.08400
C1025       C  0.11759848  0.67923624  0.86690839    -0.13800
C1026       C  0.12960492  0.71963686  0.88431921    -0.13800
C1027       C  0.10030254  0.73971580  0.88436796     0.08400
C1028       C  0.05650078  0.71564127  0.86976950    -0.13800
H1029       H  0.01275755  0.66000876  0.83896785     0.12300
H1030       H  0.14225585  0.66662917  0.86518914     0.12300
H1031       H  0.16374274  0.73745933  0.89546302     0.12300
H1032       H  0.03328407  0.73005943  0.86906593     0.12300
C1033       C  0.93771242  0.28332106  0.62854194    -0.13800
C1034       C  0.89453400  0.26225445  0.61301971     0.08400
C1035       C  0.86977858  0.28686664  0.61034100    -0.13800
C1036       C  0.88545628  0.32936380  0.62601020    -0.13800
C1037       C  0.92569293  0.34727482  0.64493522     0.08400
C1038       C  0.95264793  0.32498517  0.64459178    -0.13800
H1039       H  0.95714896  0.26509205  0.63159316     0.12300
H1040       H  0.83605171  0.27111441  0.59861502     0.12300
H1041       H  0.86399203  0.34573551  0.62571975     0.12300
H1042       H  0.98347993  0.33792331  0.65909047     0.12300
C1043       C  0.11407175  0.43601666  0.63555873    -0.13800
C1044       C  0.08630032  0.41293277  0.66164487     0.08400
C1045       C  0.07156265  0.36574467  0.66558420    -0.13800
C1046       C  0.08353653  0.34203026  0.64375823    -0.13800
C1047       C  0.11260517  0.36553942  0.61850111     0.08400
C1048       C  0.12784600  0.41264077  0.61447321    -0.13800
H1049       H  0.12616814  0.47233944  0.63189415     0.12300
H1050       H  0.05086142  0.34696583  0.68569213     0.12300
H1051       H  0.07301627  0.30612375  0.64796535     0.12300
H1052       H  0.15173272  0.43160797  0.59567446     0.12300
C1053       C  0.02196244  0.32014861  0.81058825    -0.13800
C1054       C  0.04847807  0.36709897  0.81977412     0.08400
C1055       C  0.08330139  0.37897543  0.84282039    -0.13800
C1056       C  0.09439066  0.34580851  0.85392983    -0.13800
C1057       C  0.07053444  0.29977019  0.84268980     0.08400
C1058       C  0.03267395  0.28682861  0.82203472    -0.13800
H1059       H  0.99423781  0.30947033  0.79325146     0.12300
H1060       H  0.10407463  0.41445676  0.85068927     0.12300
H1061       H  0.12380635  0.35688940  0.86992687     0.12300
H1062       H  0.01387588  0.25194784  0.81271667     0.12300
C1063       C  0.91655310  0.32396806  0.84595597    -0.13800
C1064       C  0.90796458  0.31814332  0.81330702     0.08400
C1065       C  0.89145134  0.27425409  0.79969604    -0.13800
C1066       C  0.88080403  0.23635207  0.81876048    -0.13800
C1067       C  0.88777331  0.24201388  0.85150090     0.08400
C1068       C  0.90686689  0.28613374  0.86494111    -0.13800
H1069       H  0.93055519  0.35779053  0.85679009     0.12300
H1070       H  0.88538200  0.26904513  0.77451341     0.12300
H1071       H  0.86558893  0.20226744  0.80812903     0.12300
H1072       H  0.91179513  0.29088611  0.89021986     0.12300
C1073       C  0.62038522  0.67258484  0.85544128    -0.13800
C1074       C  0.57128392  0.65147277  0.85359126     0.08400
C1075       C  0.54867540  0.66837816  0.87305564    -0.13800
C1076       C  0.57518078  0.70879598  0.89099265    -0.13800
C1077       C  0.62461849  0.73270435  0.88992315     0.08400
C1078       C  0.64678974  0.71236795  0.87360717    -0.13800
H1079       H  0.63864020  0.66004790  0.84092702     0.12300
H1080       H  0.51099483  0.65281983  0.87239468     0.12300
H1081       H  0.55703539  0.72382076  0.90336126     0.12300
H1082       H  0.68451411  0.72989532  0.87190820     0.12300
C1083       C  0.73546458  0.65531045  0.85665814    -0.13800
C1084       C  0.74131620  0.63144479  0.88171486     0.08400
C1085       C  0.70995928  0.58416602  0.88525591    -0.13800
C1086       C  0.67357732  0.56084046  0.86352988    -0.13800
C1087       C  0.66912795  0.58429921  0.83740548     0.08400
C1088       C  0.70044486  0.63180118  0.83435152    -0.13800
H1089       H  0.76047398  0.69135807  0.85278853     0.12300
H1090       H  0.71505870  0.56496263  0.90393710     0.12300
H1091       H  0.64984056  0.52433481  0.86672058     0.12300
H1092       H  0.69839874  0.65093440  0.81440933     0.12300
C1093       C  0.70005615  0.62213864  0.65508716    -0.13800
C1094       C  0.68243105  0.63130325  0.68267327     0.08400
C1095       C  0.70756095  0.67624779  0.69592354    -0.13800
C1096       C  0.74954484  0.71022007  0.68284671    -0.13800
C1097       C  0.76863669  0.69993683  0.65668607     0.08400
C1098       C  0.74288643  0.65583208  0.64253408    -0.13800
H1099       H  0.68195954  0.58833319  0.64405738     0.12300
H1100       H  0.69592834  0.68486259  0.71742718     0.12300
H1101       H  0.76910326  0.74313709  0.69490839     0.12300
H1102       H  0.75736899  0.64654435  0.62272178     0.12300
C1103       C  0.55769618  0.69297688  0.65994158    -0.13800
C1104       C  0.57828354  0.68641739  0.68710147     0.08400
C1105       C  0.62666862  0.71514130  0.69197636    -0.13800
C1106       C  0.65399201  0.74846805  0.66983579    -0.13800
C1107       C  0.63321256  0.75475075  0.64285829     0.08400
C1108       C  0.58482485  0.72724906  0.63831240    -0.13800
H1109       H  0.52065670  0.67158107  0.65532971     0.12300
H1110       H  0.64355044  0.71165081  0.71285901     0.12300
H1111       H  0.69087758  0.77087302  0.67455702     0.12300
H1112       H  0.56789167  0.73306794  0.61827753     0.12300
C1113       C  0.32247077  0.42819330  0.63356290    -0.13800
C1114       C  0.32322975  0.40577521  0.66137220     0.08400
C1115       C  0.28877652  0.35945596  0.66575704    -0.13800
C1116       C  0.25431534  0.33623048  0.64301179    -0.13800
C1117       C  0.25208774  0.35955449  0.61629407     0.08400
C1118       C  0.28667335  0.40543030  0.61141335    -0.13800
H1119       H  0.34862562  0.46372904  0.62938013     0.12300
H1120       H  0.28806559  0.34115087  0.68697415     0.12300
H1121       H  0.22687154  0.30134939  0.64772877     0.12300
H1122       H  0.28444338  0.42432579  0.59137224     0.12300
C1123       C  0.43756331  0.31965908  0.63039285    -0.13800
C1124       C  0.41616997  0.33894386  0.64886879     0.08400
C1125       C  0.36728269  0.31926849  0.64694955    -0.13800
C1126       C  0.33969881  0.27914749  0.62939160    -0.13800
C1127       C  0.36040206  0.25668481  0.61389009     0.08400
C1128       C  0.40983889  0.27865474  0.61321199    -0.13800
H1129       H  0.47508987  0.33392973  0.63125105     0.12300
H1130       H  0.35010721  0.33331345  0.66105140     0.12300
H1131       H  0.30204199  0.26323747  0.63081446     0.12300
H1132       H  0.42693615  0.26208302  0.60143196     0.12300
C1133       C  0.40037151  0.27405702  0.86998936    -0.13800
C1134       C  0.35371850  0.24226102  0.86294784     0.08400
C1135       C  0.33413659  0.24518546  0.83430269    -0.13800
C1136       C  0.36108469  0.27950551  0.81274326    -0.13800
C1137       C  0.40775991  0.31213689  0.81984263     0.08400
C1138       C  0.42703525  0.30912881  0.84881460    -0.13800
H1139       H  0.41642407  0.27101107  0.89153314     0.12300
H1140       H  0.29870540  0.21955504  0.82799255     0.12300
H1141       H  0.34536177  0.28043104  0.79051962     0.12300
H1142       H  0.46282764  0.33366423  0.85506631     0.12300
C1143       C  0.27879201  0.31687712  0.80413523    -0.13800
C1144       C  0.30417836  0.36169202  0.81755440     0.08400
C1145       C  0.28504817  0.37180709  0.84396152    -0.13800
C1146       C  0.24060982  0.33931997  0.85506278    -0.13800
C1147       C  0.21456549  0.29546886  0.84060149     0.08400
C1148       C  0.23495576  0.28412619  0.81570169    -0.13800
H1149       H  0.29181720  0.30750103  0.78362042     0.12300
H1150       H  0.30330620  0.40554082  0.85508176     0.12300
H1151       H  0.22540396  0.34934706  0.87404221     0.12300
H1152       H  0.21543551  0.25132762  0.80350284     0.12300
loop_ 
_geom_bond_atom_site_label_1 
_geom_bond_atom_site_label_2 
_geom_bond_distance 
_geom_bond_site_symmetry_2 
_ccdc_geom_bond_type 
O1          Zr13   2.435       .  S
O1            C3   1.286       .  A
O2          Zr39   2.406       .  S
O2            C3   1.282       .  A
C3          C561   1.477       .  S
O4          Zr16   2.496       .  S
O4            C6   1.297       .  A
O5          Zr40   2.393       .  S
O5            C6   1.282       .  A
C6          C498   1.486       .  S
O7          Zr16   2.510       .  S
O7            C9   1.301       .  A
O8          Zr39   2.399       .  S
O8            C9   1.281       .  A
C9          C568   1.506       .  S
O10         Zr13   2.452       .  S
O10          C12   1.288       .  A
O11         Zr40   2.400       .  S
O11          C12   1.282       .  A
C12         C511   1.478       .  S
Zr13         O14   2.438       .  S
Zr13         O15   2.436       .  S
Zr13         O19   2.282       .  S
Zr13         O20   2.373       .  S
Zr13         O43   2.373       .  S
Zr13         O45   2.377       .  S
O14          H57   0.990       .  S
O15          H56   0.990       .  S
O15          H60   0.990       .  S
Zr16         O17   2.438       .  S
Zr16         O18   2.437       .  S
Zr16         O19   2.282       .  S
Zr16         O20   2.378       .  S
Zr16         O44   2.384       .  S
Zr16         O46   2.398       .  S
O17          H58   0.990       .  S
O17          H61   0.990       .  S
O18          H51   0.990       .  S
O19         Zr39   2.253       .  S
O20         Zr40   2.384       .  S
O20          H47   0.962       .  S
O21         Zr33   2.516       .  S
O21          C23   1.302       .  A
O22         Zr40   2.402       .  S
O22          C23   1.283       .  A
C23         C518   1.504       .  S
O24         Zr36   2.449       .  S
O24          C26   1.288       .  A
O25         Zr39   2.390       .  S
O25          C26   1.280       .  A
C26         C538   1.476       .  S
O27         Zr36   2.464       .  S
O27          C29   1.292       .  A
O28         Zr40   2.410       .  S
O28          C29   1.284       .  A
C29         C528   1.485       .  S
O30         Zr33   2.491       .  S
O30          C32   1.296       .  A
O31         Zr39   2.392       .  S
O31          C32   1.281       .  A
C32         C548   1.489       .  S
Zr33         O34   2.437       .  S
Zr33         O35   2.433       .  S
Zr33         O41   2.362       .  S
Zr33         O42   2.381       .  S
Zr33         O45   2.398       .  S
Zr33         O43   2.391       .  S
O34          H54   0.990       .  S
O34          H59   0.990       .  S
O35          H55   0.990       .  S
Zr36         O37   2.436       .  S
Zr36         O38   2.433       .  S
Zr36         O42   2.373       .  S
Zr36         O41   2.368       .  S
Zr36         O46   2.385       .  S
Zr36         O44   2.386       .  S
O37          H53   0.990       .  S
O38          H52   0.990       .  S
O38          H62   0.990       .  S
Zr39         O42   2.369       .  S
Zr39         O44   2.384       .  S
Zr39         O45   2.385       .  S
Zr40         O41   2.375       .  S
Zr40         O43   2.383       .  S
Zr40         O46   2.388       .  S
O41          H49   0.962       .  S
O44          H48   0.963       .  S
O45          H50   0.965       .  S
O63         Zr75   2.499       .  S
O63          C65   1.299       .  A
O64        Zr101   2.400   1_455  S
O64          C65   1.281       .  A
C65         C478   1.499       .  S
O66         Zr78   2.455       .  S
O66          C68   1.289       .  A
O67        Zr102   2.402   1_655  S
O67          C68   1.282       .  A
C68         C438   1.478       .  S
O69         Zr78   2.448       .  S
O69          C71   1.287       .  A
O70        Zr101   2.401       .  S
O70          C71   1.279       .  A
C71         C488   1.472       .  S
O72         Zr75   2.496       .  S
O72          C74   1.296       .  A
O73        Zr102   2.396       .  S
O73          C74   1.282       .  A
C74         C448   1.482       .  S
Zr75         O76   2.437       .  S
Zr75         O77   2.435       .  S
Zr75         O81   2.283   1_455  S
Zr75         O82   2.379   1_455  S
Zr75        O105   2.394       .  S
Zr75        O107   2.387       .  S
O76         H119   0.990       .  S
O77         H118   0.990       .  S
O77         H122   0.990       .  S
Zr78         O79   2.441       .  S
Zr78         O80   2.435       .  S
Zr78         O81   2.277       .  S
Zr78         O82   2.370       .  S
Zr78        O106   2.380       .  S
Zr78        O108   2.381       .  S
O79         H120   0.990       .  S
O79         H123   0.991       .  S
O80         H113   0.990       .  S
O81        Zr101   2.259       .  S
O82        Zr102   2.393   1_655  S
O82         H109   0.962       .  S
O83         Zr95   2.452       .  S
O83          C85   1.289       .  A
O84        Zr102   2.415       .  S
O84          C85   1.285       .  A
C85         C418   1.480       .  S
O86         Zr98   2.482       .  S
O86          C88   1.294       .  A
O87        Zr101   2.388       .  S
O87          C88   1.280       .  A
C88         C461   1.484       .  S
O89         Zr98   2.515       .  S
O89          C91   1.302       .  A
O90        Zr102   2.399   1_655  S
O90          C91   1.282       .  A
C91         C428   1.504       .  S
O92         Zr95   2.446       .  S
O92          C94   1.288       .  A
O93        Zr101   2.391   1_455  S
O93          C94   1.279       .  A
C94         C468   1.478       .  S
Zr95         O96   2.441       .  S
Zr95         O97   2.435       .  S
Zr95        O104   2.286       .  S
Zr95        O103   2.383       .  S
Zr95        O107   2.381       .  S
Zr95        O105   2.382       .  S
O96         H116   0.990       .  S
O96         H121   0.991       .  S
O97         H117   0.990       .  S
Zr98         O99   2.437       .  S
Zr98        O100   2.434       .  S
Zr98        O104   2.295   1_655  S
Zr98        O103   2.358   1_655  S
Zr98        O108   2.384       .  S
Zr98        O106   2.393       .  S
O99         H115   0.990       .  S
O100        H114   0.990       .  S
O100        H124   0.990       .  S
Zr101       O104   2.265   1_655  S
Zr101       O106   2.385       .  S
Zr101       O107   2.386   1_655  S
Zr102       O103   2.387       .  S
Zr102       O105   2.392       .  S
Zr102       O108   2.390   1_455  S
O103        H111   0.962       .  S
O106        H110   0.959       .  S
O107        H112   0.961       .  S
O125       Zr137   2.453       .  S
O125        C127   1.290       .  A
O126       Zr163   2.388       .  S
O126        C127   1.278       .  A
C127        C398   1.478       .  S
O128       Zr140   2.470       .  S
O128        C130   1.292       .  A
O129       Zr164   2.419   1_545  S
O129        C130   1.285       .  A
C130        C358   1.489       .  S
O131       Zr140   2.448       .  S
O131        C133   1.289       .  A
O132       Zr163   2.419   1_545  S
O132        C133   1.285       .  A
C133        C408   1.488       .  S
O134       Zr137   2.453       .  S
O134        C136   1.289       .  A
O135       Zr164   2.392       .  S
O135        C136   1.281       .  A
C136        C371   1.474       .  S
Zr137       O138   2.438       .  S
Zr137       O139   2.434       .  S
Zr137       O143   2.279       .  S
Zr137       O144   2.378       .  S
Zr137       O167   2.380       .  S
Zr137       O169   2.382       .  S
O138        H181   0.990       .  S
O139        H180   0.991       .  S
O139        H184   0.990       .  S
Zr140       O141   2.440       .  S
Zr140       O142   2.436       .  S
Zr140       O143   2.283   1_545  S
Zr140       O144   2.365   1_545  S
Zr140       O168   2.386       .  S
Zr140       O170   2.378       .  S
O141        H182   0.991       .  S
O141        H185   0.990       .  S
O142        H175   0.990       .  S
O143       Zr163   2.262       .  S
O144       Zr164   2.386       .  S
O144        H171   0.964       .  S
O145       Zr157   2.473       .  S
O145        C147   1.293       .  A
O146       Zr164   2.414       .  S
O146        C147   1.285       .  A
C147        C338   1.490       .  S
O148       Zr160   2.455       .  S
O148        C150   1.290       .  A
O149       Zr163   2.389   1_545  S
O149        C150   1.279       .  A
C150        C378   1.478       .  S
O151       Zr160   2.467       .  S
O151        C153   1.293       .  A
O152       Zr164   2.392   1_545  S
O152        C153   1.281       .  A
C153        C351   1.479       .  S
O154       Zr157   2.457       .  S
O154        C156   1.290       .  A
O155       Zr163   2.413       .  S
O155        C156   1.284       .  A
C156        C388   1.490       .  S
Zr157       O158   2.440       .  S
Zr157       O159   2.435       .  S
Zr157       O166   2.281   1_565  S
Zr157       O165   2.367   1_565  S
Zr157       O169   2.390       .  S
Zr157       O167   2.383       .  S
O158        H178   0.991       .  S
O158        H183   0.990       .  S
O159        H179   0.990       .  S
Zr160       O161   2.438       .  S
Zr160       O162   2.435       .  S
Zr160       O166   2.278       .  S
Zr160       O165   2.368       .  S
Zr160       O170   2.379       .  S
Zr160       O168   2.381       .  S
O161        H177   0.990       .  S
O162        H176   0.990       .  S
O162        H186   0.990       .  S
Zr163       O166   2.263   1_565  S
Zr163       O168   2.390   1_565  S
Zr163       O169   2.391       .  S
Zr164       O165   2.390   1_565  S
Zr164       O167   2.390       .  S
Zr164       O170   2.391   1_565  S
O165        H173   0.964       .  S
O168        H172   0.967       .  S
O169        H174   0.968       .  S
C187        N188   1.374       .  A
C187        N192   1.375       .  A
C187        C336   1.480       .  S
N188        C189   1.371       .  A
C189        C481   1.491       .  S
C189        N190   1.350       .  A
N190        C191   1.349       .  A
C191        C571   1.491       .  S
C191        N192   1.372       .  A
C193        N194   1.358       .  A
C193        N198   1.358       .  A
C193        C334   1.431       .  S
N194        C195   1.358       .  A
C195        C541   1.456       .  S
C195        N196   1.349       .  A
N196        C197   1.349       .  A
C197        C471   1.459       .  S
C197        N198   1.358       .  A
C199        N200   1.370       .  A
C199        N204   1.363       .  A
C199        C331   1.448       .  S
N200        C201   1.364       .  A
C201        C391   1.468       .  S
C201        N202   1.346       .  A
N202        C203   1.345       .  A
C203        C421   1.459       .  S
C203        N204   1.359       .  A
C205        N206   1.360       .  A
C205        N210   1.370       .  A
C205        C329   1.453       .  S
N206        C207   1.358       .  A
C207        C348   1.466       .  S
C207        N208   1.348       .  A
N208        C209   1.350       .  A
C209        C458   1.482       .  S
C209        N210   1.369       .  A
C211        N212   1.362       .  A
C211        N216   1.369       .  A
C211        C327   1.446       .  S
N212        C213   1.358       .  A
C213        C491   1.461       .  S
C213        N214   1.348       .  A
N214        C215   1.349       .  A
C215        C361   1.472       .  S
C215        N216   1.364       .  A
C217        N218   1.360       .  A
C217        N222   1.369       .  A
C217        C326   1.444       .  S
N218        C219   1.357       .  A
C219        C558   1.454       .  S
C219        N220   1.346       .  A
N220        C221   1.347       .  A
C221        C411   1.467       .  S
C221        N222   1.364       .  A
C223        N224   1.359       .  A
C223        N228   1.371       .  A
C223        C323   1.449       .  S
N224        C225   1.356       .  A
C225        C401   1.463       .  S
C225        N226   1.347       .  A
N226        C227   1.349       .  A
C227        C451   1.485       .  S
C227        N228   1.370       .  A
C229        N230   1.371       .  A
C229        N234   1.360       .  A
C229        C321   1.457       .  S
N230        C231   1.372       .  A
C231        C551   1.487       .  S
C231        N232   1.350       .  A
N232        C233   1.349       .  A
C233        C381   1.467       .  S
C233        N234   1.359       .  A
O235       Zr271   2.574   1_445  S
O235        C246   1.319       .  A
O236       Zr270   2.452       .  S
O236        C247   1.294       .  A
O237       Zr243   2.481   1_655  S
O237        C248   1.298       .  A
O238       Zr243   2.489       .  S
O238        C249   1.299       .  A
O239       Zr849   2.409   1_545  S
O239        C249   1.284       .  A
O240       Zr848   2.414   1_545  S
O240        C248   1.285       .  A
O241       Zr819   2.429   1_554  S
O241        C247   1.290       .  A
O242       Zr243   2.366       .  S
O242        C246   1.276       .  A
Zr243       O817   2.432       .  S
Zr243       O245   2.348   1_455  S
Zr243       O253   2.347       .  S
Zr243       O820   2.333       .  S
Zr243       O827   2.336   1_455  S
O244       Zr270   2.363       .  S
O244       Zr273   2.328   1_544  S
O244       Zr819   2.333   1_554  S
O245       Zr271   2.338   1_545  S
O245       Zr848   2.345   1_545  S
C246        C335   1.468       .  S
C247        C333   1.431       .  S
C248        C328   1.444       .  S
C249        C325   1.441       .  S
H250        O251   0.964       .  S
O251       Zr270   2.371   1_655  S
O251       Zr272   2.341   1_545  S
O251       Zr819   2.337   1_654  S
H252        O253   0.964       .  S
O253       Zr271   2.341   1_445  S
O253       Zr849   2.350   1_545  S
O254       Zr270   2.575   1_665  S
O254        C277   1.320       .  A
O255       Zr271   2.446       .  S
O255        C278   1.294       .  A
O256       Zr272   2.452   1_545  S
O256        C279   1.293       .  A
O257       Zr273   2.443   1_544  S
O257        C280   1.292       .  A
O258       Zr849   2.443       .  S
O258        C281   1.292       .  A
O259       Zr848   2.447       .  S
O259        C282   1.293       .  A
O260       Zr274   2.485       .  S
O260        C283   1.299       .  A
O261       Zr274   2.491   1_455  S
O261        C284   1.299       .  A
O262       Zr272   2.418       .  S
O262        C283   1.286       .  A
O263       Zr273   2.412   1_554  S
O263        C284   1.285       .  A
O264       Zr270   2.476   1_655  S
O264        C279   1.298       .  A
O265       Zr271   2.482       .  S
O265        C282   1.299       .  A
O266       Zr271   2.470   1_455  S
O266        C281   1.297       .  A
O267       Zr270   2.482       .  S
O267        C280   1.300       .  A
O268       Zr274   2.363       .  S
O268        C277   1.276       .  A
O269       Zr274   2.442   1_556  S
O269        C854   1.293       .  A
Zr270       O276   2.340   1_445  S
Zr270       O288   2.337   1_545  S
Zr271       O275   2.367   1_655  S
Zr271       O286   2.371       .  S
Zr272       O816   2.413   1_564  S
Zr272       O835   2.449   1_554  S
Zr272       O276   2.340       .  S
Zr272       O821   2.347   1_564  S
Zr272       O862   2.340   1_554  S
Zr273       O815   2.408   1_565  S
Zr273       O834   2.443       .  S
Zr273       O288   2.346   1_556  S
Zr273       O829   2.351   1_565  S
Zr273       O851   2.328       .  S
Zr274       O276   2.348       .  S
Zr274       O288   2.349   1_655  S
Zr274       O851   2.332   1_654  S
Zr274       O862   2.332   1_554  S
O275       Zr849   2.328       .  S
O275       Zr850   2.331   1_455  S
C277        C314   1.468       .  S
C278        O845   1.292       .  A
C278        C319   1.432       .  S
C279        C330   1.452       .  S
C280        C322   1.456       .  S
C281        C324   1.449       .  S
C282        C317   1.452       .  S
C283        C315   1.449       .  S
C284        C332   1.445       .  S
H285        O286   0.964       .  S
O286       Zr848   2.340       .  S
O286       Zr850   2.335       .  S
H287        O288   0.965       .  S
C289        N290   1.366       .  A
C289        N294   1.369       .  A
C289        C316   1.452       .  S
N290        C291   1.362       .  A
C291        C531   1.463       .  S
C291        N292   1.346       .  A
N292        C293   1.346       .  A
C293        C341   1.468       .  S
C293        N294   1.364       .  A
C295        N296   1.372       .  A
C295        N300   1.359       .  A
C295        C318   1.454       .  S
N296        C297   1.372       .  A
C297        C501   1.485       .  S
C297        N298   1.348       .  A
N298        C299   1.345       .  A
C299        C368   1.463       .  S
C299        N300   1.357       .  A
C301        N302   1.375       .  A
C301        N306   1.375       .  A
C301        C313   1.481       .  S
N302        C303   1.372       .  A
C303        C431   1.491       .  S
C303        N304   1.349       .  A
N304        C305   1.348       .  A
C305        C521   1.488       .  S
C305        N306   1.372       .  A
C307        N308   1.360       .  A
C307        N312   1.359       .  A
C307        C320   1.433       .  S
N308        C309   1.359       .  A
C309        C441   1.460       .  S
C309        N310   1.348       .  A
N310        C311   1.348       .  A
C311        C508   1.458       .  S
C311        N312   1.358       .  A
C313        C314   1.232       .  T
C315        C316   1.215       .  T
C317        C318   1.217       .  T
C319        C320   1.204       .  T
C321        C322   1.219       .  T
C323        C324   1.215       .  T
C325        C326   1.211       .  T
C327        C328   1.212       .  T
C329        C330   1.217       .  T
C331        C332   1.213       .  T
C333        C334   1.203       .  T
C335        C336   1.232       .  T
C337        C338   1.410       .  A
C337        C342   1.399       .  A
C337        H343   1.083       .  S
C338        C339   1.406       .  A
C339        C340   1.401       .  A
C339        H344   1.083       .  S
C340        C341   1.405       .  A
C340        H345   1.083       .  S
C341        C342   1.401       .  A
C342        H346   1.084       .  S
C347        C348   1.400       .  A
C347        C352   1.396       .  A
C347        H353   1.083       .  S
C348        C349   1.404       .  A
C349        C350   1.394       .  A
C349        H354   1.083       .  S
C350        C351   1.404       .  A
C350        H355   1.083       .  S
C351        C352   1.411       .  A
C352        H356   1.083       .  S
C357        C358   1.405       .  A
C357        C362   1.400       .  A
C357        H363   1.083       .  S
C358        C359   1.410       .  A
C359        C360   1.402       .  A
C359        H364   1.081       .  S
C360        C361   1.401       .  A
C360        H365   1.083       .  S
C361        C362   1.405       .  A
C362        H366   1.083       .  S
C367        C368   1.406       .  A
C367        C372   1.395       .  A
C367        H373   1.084       .  S
C368        C369   1.398       .  A
C369        C370   1.390       .  A
C369        H374   1.083       .  S
C370        C371   1.408       .  A
C370        H375   1.082       .  S
C371        C372   1.403       .  A
C372        H376   1.083       .  S
C377        C378   1.403       .  A
C377        C382   1.396       .  A
C377        H383   1.083       .  S
C378        C379   1.409       .  A
C379        C380   1.395       .  A
C379        H384   1.081       .  S
C380        C381   1.400       .  A
C380        H385   1.083       .  S
C381        C382   1.405       .  A
C382        H386   1.083       .  S
C387        C388   1.406       .  A
C387        C392   1.401       .  A
C387        H393   1.083       .  S
C388        C389   1.409       .  A
C389        C390   1.399       .  A
C389        H394   1.081       .  S
C390        C391   1.401       .  A
C390        H395   1.084       .  S
C391        C392   1.405       .  A
C392        H396   1.084       .  S
C397        C398   1.410       .  A
C397        C402   1.395       .  A
C397        H403   1.083       .  S
C398        C399   1.403       .  A
C399        C400   1.394       .  A
C399        H404   1.083       .  S
C400        C401   1.403       .  A
C400        H405   1.084       .  S
C401        C402   1.399       .  A
C402        H406   1.083       .  S
C407        C408   1.409       .  A
C407        C412   1.401       .  A
C407        H413   1.082       .  S
C408        C409   1.406       .  A
C409        C410   1.398       .  A
C409        H414   1.083       .  S
C410        C411   1.403       .  A
C410        H415   1.084       .  S
C411        C412   1.402       .  A
C412        H416   1.083       .  S
C417        C418   1.408       .  A
C417        C422   1.396       .  A
C417        H423   1.081       .  S
C418        C419   1.406       .  A
C419        C420   1.396       .  A
C419        H424   1.083       .  S
C420        C421   1.402       .  A
C420        H425   1.084       .  S
C421        C422   1.398       .  A
C422        H426   1.084       .  S
C427        C428   1.404       .  A
C427        C432   1.407       .  A
C427        H433   1.083       .  S
C428        C429   1.417       .  A
C429        C430   1.405       .  A
C429        H434   1.080       .  S
C430        C431   1.400       .  A
C430        H435   1.083       .  S
C431        C432   1.413       .  A
C432        H436   1.083       .  S
C437        C438   1.405       .  A
C437        C442   1.394       .  A
C437        H443   1.083       .  S
C438        C439   1.408       .  A
C439        C440   1.394       .  A
C439        H444   1.083       .  S
C440        C441   1.400       .  A
C440        H445   1.084       .  S
C441        C442   1.402       .  A
C442        H446   1.083       .  S
C447        C448   1.407       .  A
C447        C452   1.398       .  A
C447        H453   1.075       .  S
C448        C449   1.398       .  A
C449        C450   1.404       .  A
C449        H454   1.083       .  S
C450        C451   1.416       .  A
C450        H455   1.083       .  S
C451        C452   1.399       .  A
C452        H456   1.083       .  S
C457        C458   1.397       .  A
C457        C462   1.396       .  A
C457        H463   1.083       .  S
C458        C459   1.415       .  A
C459        C460   1.406       .  A
C459        H464   1.083       .  S
C460        C461   1.400       .  A
C460        H465   1.083       .  S
C461        C462   1.407       .  A
C462        H466   1.075       .  S
C467        C468   1.405       .  A
C467        C472   1.397       .  A
C467        H473   1.083       .  S
C468        C469   1.408       .  A
C469        C470   1.391       .  A
C469        H474   1.083       .  S
C470        C471   1.398       .  A
C470        H475   1.084       .  S
C471        C472   1.402       .  A
C472        H476   1.083       .  S
C477        C478   1.416       .  A
C477        C482   1.406       .  A
C477        H483   1.082   1_455  S
C478        C479   1.402       .  A
C479        C480   1.405       .  A
C479        H484   1.083       .  S
C480        C481   1.413       .  A
C480        H485   1.083       .  S
C481        C482   1.401       .  A
C482        H486   1.083       .  S
C487        C488   1.406       .  A
C487        C492   1.397       .  A
C487        H493   1.083       .  S
C488        C489   1.404       .  A
C489        C490   1.395       .  A
C489        H494   1.083       .  S
C490        C491   1.403       .  A
C490        H495   1.084       .  S
C491        C492   1.398       .  A
C492        H496   1.083       .  S
C497        C498   1.410       .  A
C497        C502   1.398       .  A
C497        H503   1.077       .  S
C498        C499   1.399       .  A
C499        C500   1.405       .  A
C499        H504   1.083       .  S
C500        C501   1.417       .  A
C500        H505   1.083       .  S
C501        C502   1.398       .  A
C502        H506   1.083       .  S
C507        C508   1.398       .  A
C507        C512   1.390       .  A
C507        H513   1.084       .  S
C508        C509   1.403       .  A
C509        C510   1.398       .  A
C509        H514   1.083       .  S
C510        C511   1.406       .  A
C510        H515   1.083       .  S
C511        C512   1.407       .  A
C512        H516   1.083       .  S
C517        C518   1.405       .  A
C517        C522   1.408       .  A
C517        H523   1.083       .  S
C518        C519   1.416       .  A
C519        C520   1.403       .  A
C519        H524   1.081       .  S
C520        C521   1.399       .  A
C520        H525   1.083       .  S
C521        C522   1.413       .  A
C522        H526   1.083       .  S
C527        C528   1.406       .  A
C527        C532   1.397       .  A
C527        H533   1.083       .  S
C528        C529   1.410       .  A
C529        C530   1.399       .  A
C529        H534   1.081       .  S
C530        C531   1.400       .  A
C530        H535   1.084       .  S
C531        C532   1.402       .  A
C532        H536   1.083       .  S
C537        C538   1.405       .  A
C537        C542   1.397       .  A
C537        H543   1.083       .  S
C538        C539   1.407       .  A
C539        C540   1.391       .  A
C539        H544   1.083       .  S
C540        C541   1.399       .  A
C540        H545   1.084       .  S
C541        C542   1.401       .  A
C542        H546   1.083       .  S
C547        C548   1.401       .  A
C547        C552   1.409       .  A
C547        H553   1.083       .  S
C548        C549   1.408       .  A
C549        C550   1.397       .  A
C549        H554   1.074       .  S
C550        C551   1.397       .  A
C550        H555   1.083       .  S
C551        C552   1.417       .  A
C552        H556   1.083       .  S
C557        C558   1.399       .  A
C557        C562   1.394       .  A
C557        H563   1.083       .  S
C558        C559   1.399       .  A
C559        C560   1.395       .  A
C559        H564   1.084       .  S
C560        C561   1.407       .  A
C560        H565   1.082       .  S
C561        C562   1.407       .  A
C562        H566   1.083       .  S
C567        C568   1.417       .  A
C567        C572   1.405       .  A
C567        H573   1.082       .  S
C568        C569   1.405       .  A
C569        C570   1.409       .  A
C569        H574   1.083       .  S
C570        C571   1.413       .  A
C570        H575   1.083       .  S
C571        C572   1.399       .  A
C572        H576   1.083       .  S
O577       Zr589   2.433       .  S
O577        C579   1.285       .  A
O578       Zr615   2.411       .  S
O578        C579   1.282       .  A
C579       C1137   1.479       .  S
O580       Zr592   2.505       .  S
O580        C582   1.298       .  A
O581       Zr616   2.396       .  S
O581        C582   1.282       .  A
C582       C1074   1.490       .  S
O583       Zr592   2.505       .  S
O583        C585   1.300       .  A
O584       Zr615   2.400       .  S
O584        C585   1.281       .  A
C585       C1144   1.505       .  S
O586       Zr589   2.449       .  S
O586        C588   1.288       .  A
O587       Zr616   2.404       .  S
O587        C588   1.283       .  A
C588       C1087   1.477       .  S
Zr589       O590   2.438       .  S
Zr589       O591   2.434       .  S
Zr589       O595   2.283       .  S
Zr589       O596   2.371       .  S
Zr589       O619   2.377       .  S
Zr589       O621   2.380       .  S
O590        H633   0.990       .  S
O591        H632   0.990       .  S
O591        H636   0.990       .  S
Zr592       O593   2.438       .  S
Zr592       O594   2.437       .  S
Zr592       O595   2.288       .  S
Zr592       O596   2.376       .  S
Zr592       O620   2.390       .  S
Zr592       O622   2.398       .  S
O593        H634   0.990       .  S
O593        H637   0.990       .  S
O594        H627   0.990       .  S
O595       Zr615   2.257       .  S
O596       Zr616   2.385       .  S
O596        H623   0.963       .  S
O597       Zr609   2.520       .  S
O597        C599   1.303       .  A
O598       Zr616   2.400       .  S
O598        C599   1.283       .  A
C599       C1094   1.505       .  S
O600       Zr612   2.446       .  S
O600        C602   1.288       .  A
O601       Zr615   2.396       .  S
O601        C602   1.280       .  A
C602       C1114   1.478       .  S
O603       Zr612   2.464       .  S
O603        C605   1.291       .  A
O604       Zr616   2.412       .  S
O604        C605   1.284       .  A
C605       C1104   1.485       .  S
O606       Zr609   2.493       .  S
O606        C608   1.296       .  A
O607       Zr615   2.395       .  S
O607        C608   1.281       .  A
C608       C1124   1.491       .  S
Zr609       O610   2.438       .  S
Zr609       O611   2.434       .  S
Zr609       O618   2.289       .  S
Zr609       O617   2.359       .  S
Zr609       O621   2.400       .  S
Zr609       O619   2.391       .  S
O610        H630   0.990       .  S
O610        H635   0.991       .  S
O611        H631   0.990       .  S
Zr612       O613   2.438       .  S
Zr612       O614   2.435       .  S
Zr612       O618   2.283       .  S
Zr612       O617   2.367       .  S
Zr612       O622   2.382       .  S
Zr612       O620   2.386       .  S
O613        H629   0.990       .  S
O614        H628   0.990       .  S
O614        H638   0.990       .  S
Zr615       O618   2.266       .  S
Zr615       O620   2.389       .  S
Zr615       O621   2.387       .  S
Zr616       O617   2.381       .  S
Zr616       O619   2.388       .  S
Zr616       O622   2.391       .  S
O617        H625   0.961       .  S
O620        H624   0.961       .  S
O621        H626   0.964       .  S
O639       Zr651   2.495       .  S
O639        C641   1.298       .  A
O640       Zr677   2.401   1_455  S
O640        C641   1.281       .  A
C641       C1054   1.497       .  S
O642       Zr654   2.459       .  S
O642        C644   1.290       .  A
O643       Zr678   2.402   1_655  S
O643        C644   1.282       .  A
C644       C1014   1.479       .  S
O645       Zr654   2.450       .  S
O645        C647   1.288       .  A
O646       Zr677   2.398       .  S
O646        C647   1.278       .  A
C647       C1064   1.471       .  S
O648       Zr651   2.495       .  S
O648        C650   1.296       .  A
O649       Zr678   2.395       .  S
O649        C650   1.282       .  A
C650       C1024   1.483       .  S
Zr651       O652   2.437       .  S
Zr651       O653   2.435       .  S
Zr651       O657   2.280   1_455  S
Zr651       O658   2.375   1_455  S
Zr651       O681   2.395       .  S
Zr651       O683   2.390       .  S
O652        H695   0.990       .  S
O653        H694   0.990       .  S
O653        H698   0.990       .  S
Zr654       O655   2.441       .  S
Zr654       O656   2.435       .  S
Zr654       O657   2.275       .  S
Zr654       O658   2.370       .  S
Zr654       O682   2.383       .  S
Zr654       O684   2.381       .  S
O655        H696   0.990       .  S
O655        H699   0.991       .  S
O656        H689   0.990       .  S
O657       Zr677   2.256       .  S
O658       Zr678   2.390   1_655  S
O658        H685   0.962       .  S
O659       Zr671   2.450       .  S
O659        C661   1.288       .  A
O660       Zr678   2.414       .  S
O660        C661   1.284       .  A
C661        C994   1.479       .  S
O662       Zr674   2.483       .  S
O662        C664   1.294       .  A
O663       Zr677   2.386       .  S
O663        C664   1.280       .  A
C664       C1037   1.485       .  S
O665       Zr674   2.514       .  S
O665        C667   1.301       .  A
O666       Zr678   2.398   1_655  S
O666        C667   1.282       .  A
C667       C1004   1.503       .  S
O668       Zr671   2.447       .  S
O668        C670   1.288       .  A
O669       Zr677   2.392   1_455  S
O669        C670   1.280       .  A
C670       C1044   1.479       .  S
Zr671       O672   2.442       .  S
Zr671       O673   2.435       .  S
Zr671       O680   2.285       .  S
Zr671       O679   2.383       .  S
Zr671       O683   2.383       .  S
Zr671       O681   2.382       .  S
O672        H692   0.990       .  S
O672        H697   0.991       .  S
O673        H693   0.990       .  S
Zr674       O675   2.437       .  S
Zr674       O676   2.435       .  S
Zr674       O680   2.295   1_655  S
Zr674       O679   2.359   1_655  S
Zr674       O684   2.385       .  S
Zr674       O682   2.394       .  S
O675        H691   0.990       .  S
O676        H690   0.990       .  S
O676        H700   0.990       .  S
Zr677       O680   2.263   1_655  S
Zr677       O682   2.387       .  S
Zr677       O683   2.385   1_655  S
Zr678       O679   2.385       .  S
Zr678       O681   2.390       .  S
Zr678       O684   2.389   1_455  S
O679        H687   0.962       .  S
O682        H686   0.959       .  S
O683        H688   0.961       .  S
O701       Zr713   2.452       .  S
O701        C703   1.289       .  A
O702       Zr739   2.391       .  S
O702        C703   1.279       .  A
C703        C974   1.478       .  S
O704       Zr716   2.470       .  S
O704        C706   1.292       .  A
O705       Zr740   2.421   1_545  S
O705        C706   1.286       .  A
C706        C934   1.491       .  S
O707       Zr716   2.452       .  S
O707        C709   1.290       .  A
O708       Zr739   2.416   1_545  S
O708        C709   1.284       .  A
C709        C984   1.489       .  S
O710       Zr713   2.455       .  S
O710        C712   1.290       .  A
O711       Zr740   2.392       .  S
O711        C712   1.281       .  A
C712        C947   1.474       .  S
Zr713       O714   2.439       .  S
Zr713       O715   2.434       .  S
Zr713       O719   2.279       .  S
Zr713       O720   2.376       .  S
Zr713       O743   2.381       .  S
Zr713       O745   2.382       .  S
O714        H757   0.990       .  S
O715        H756   0.991       .  S
O715        H760   0.990       .  S
Zr716       O717   2.440       .  S
Zr716       O718   2.436       .  S
Zr716       O719   2.282   1_545  S
Zr716       O720   2.363   1_545  S
Zr716       O744   2.385       .  S
Zr716       O746   2.381       .  S
O717        H758   0.990       .  S
O717        H761   0.991       .  S
O718        H751   0.990       .  S
O719       Zr739   2.261       .  S
O720       Zr740   2.387       .  S
O720        H747   0.964       .  S
O721       Zr733   2.476       .  S
O721        C723   1.293       .  A
O722       Zr740   2.421       .  S
O722        C723   1.286       .  A
C723        C914   1.493       .  S
O724       Zr736   2.453       .  S
O724        C726   1.290       .  A
O725       Zr739   2.388   1_545  S
O725        C726   1.279       .  A
C726        C954   1.477       .  S
O727       Zr736   2.466       .  S
O727        C729   1.292       .  A
O728       Zr740   2.390   1_545  S
O728        C729   1.281       .  A
C729        C927   1.479       .  S
O730       Zr733   2.455       .  S
O730        C732   1.290       .  A
O731       Zr739   2.413       .  S
O731        C732   1.284       .  A
C732        C964   1.489       .  S
Zr733       O734   2.438       .  S
Zr733       O735   2.435       .  S
Zr733       O742   2.282   1_565  S
Zr733       O741   2.368   1_565  S
Zr733       O745   2.390       .  S
Zr733       O743   2.382       .  S
O734        H754   0.991       .  S
O734        H759   0.990       .  S
O735        H755   0.990       .  S
Zr736       O737   2.438       .  S
Zr736       O738   2.435       .  S
Zr736       O742   2.279       .  S
Zr736       O741   2.369       .  S
Zr736       O746   2.380       .  S
Zr736       O744   2.382       .  S
O737        H753   0.990       .  S
O738        H752   0.991       .  S
O738        H762   0.990       .  S
Zr739       O742   2.265   1_565  S
Zr739       O744   2.391   1_565  S
Zr739       O745   2.391       .  S
Zr740       O741   2.391   1_565  S
Zr740       O743   2.390       .  S
Zr740       O746   2.393   1_565  S
O741        H749   0.964       .  S
O744        H748   0.967       .  S
O745        H750   0.968       .  S
C763        N764   1.375       .  A
C763        N768   1.375       .  A
C763        C912   1.480       .  S
N764        C765   1.371       .  A
C765       C1057   1.491       .  S
C765        N766   1.350       .  A
N766        C767   1.348       .  A
C767       C1147   1.490       .  S
C767        N768   1.371       .  A
C769        N770   1.358       .  A
C769        N774   1.358       .  A
C769        C910   1.430       .  S
N770        C771   1.357       .  A
C771       C1117   1.456       .  S
C771        N772   1.349       .  A
N772        C773   1.349       .  A
C773       C1047   1.459       .  S
C773        N774   1.358       .  A
C775        N776   1.370       .  A
C775        N780   1.362       .  A
C775        C907   1.448       .  S
N776        C777   1.365       .  A
C777        C967   1.468       .  S
C777        N778   1.346       .  A
N778        C779   1.345       .  A
C779        C997   1.458       .  S
C779        N780   1.359       .  A
C781        N782   1.360       .  A
C781        N786   1.370       .  A
C781        C905   1.453       .  S
N782        C783   1.359       .  A
C783        C924   1.466       .  S
C783        N784   1.348       .  A
N784        C785   1.349       .  A
C785       C1034   1.479       .  S
C785        N786   1.369       .  A
C787        N788   1.362       .  A
C787        N792   1.369       .  A
C787        C903   1.446       .  S
N788        C789   1.358       .  A
C789       C1067   1.462       .  S
C789        N790   1.348       .  A
N790        C791   1.349       .  A
C791        C937   1.471       .  S
C791        N792   1.364       .  A
C793        N794   1.361       .  A
C793        N798   1.369       .  A
C793        C902   1.445       .  S
N794        C795   1.358       .  A
C795       C1134   1.457       .  S
C795        N796   1.346       .  A
N796        C797   1.348       .  A
C797        C987   1.468       .  S
C797        N798   1.364       .  A
C799        N800   1.360       .  A
C799        N804   1.370       .  A
C799        C899   1.450       .  S
N800        C801   1.357       .  A
C801        C977   1.465       .  S
C801        N802   1.347       .  A
N802        C803   1.348       .  A
C803       C1027   1.484       .  S
C803        N804   1.370       .  A
C805        N806   1.373       .  A
C805        N810   1.360       .  A
C805        C897   1.457       .  S
N806        C807   1.373       .  A
C807       C1127   1.489       .  S
C807        N808   1.350       .  A
N808        C809   1.348       .  A
C809        C957   1.465       .  S
C809        N810   1.358       .  A
O811       Zr847   2.574   1_445  S
O811        C822   1.319       .  A
O812       Zr846   2.445       .  S
O812        C823   1.293       .  A
O813       Zr819   2.483   1_655  S
O813        C824   1.298       .  A
O814       Zr819   2.490       .  S
O814        C825   1.299       .  A
O815        C825   1.284       .  A
O816        C824   1.285       .  A
O817        C823   1.291       .  A
O818       Zr819   2.364       .  S
O818        C822   1.276       .  A
Zr819       O821   2.348   1_455  S
Zr819       O829   2.348       .  S
O820       Zr846   2.365       .  S
O820       Zr849   2.328   1_545  S
O821       Zr847   2.340   1_545  S
C822        C911   1.468       .  S
C823        C909   1.429       .  S
C824        C904   1.444       .  S
C825        C901   1.442       .  S
H826        O827   0.964       .  S
O827       Zr846   2.370   1_655  S
O827       Zr848   2.340   1_545  S
H828        O829   0.965       .  S
O829       Zr847   2.341   1_445  S
O830       Zr846   2.571   1_665  S
O830        C853   1.319       .  A
O831       Zr847   2.446       .  S
O831        C854   1.294       .  A
O832       Zr848   2.449   1_545  S
O832        C855   1.293       .  A
O833       Zr849   2.445   1_545  S
O833        C856   1.292       .  A
O834        C857   1.292       .  A
O835        C858   1.293       .  A
O836       Zr850   2.488       .  S
O836        C859   1.300       .  A
O837       Zr850   2.494   1_455  S
O837        C860   1.300       .  A
O838       Zr848   2.420       .  S
O838        C859   1.286       .  A
O839       Zr849   2.409       .  S
O839        C860   1.284       .  A
O840       Zr846   2.480   1_655  S
O840        C855   1.299       .  A
O841       Zr847   2.483       .  S
O841        C858   1.300       .  A
O842       Zr847   2.471   1_455  S
O842        C857   1.297       .  A
O843       Zr846   2.481       .  S
O843        C856   1.300       .  A
O844       Zr850   2.362       .  S
O844        C853   1.276       .  A
O845       Zr850   2.438       .  S
Zr846       O852   2.339   1_445  S
Zr846       O864   2.337   1_545  S
Zr847       O851   2.369   1_655  S
Zr847       O862   2.371       .  S
Zr848       O852   2.341       .  S
Zr849       O864   2.347       .  S
Zr850       O852   2.347       .  S
Zr850       O864   2.348   1_655  S
C853        C890   1.466       .  S
C854        C895   1.434       .  S
C855        C906   1.452       .  S
C856        C898   1.456       .  S
C857        C900   1.450       .  S
C858        C893   1.453       .  S
C859        C891   1.451       .  S
C860        C908   1.444       .  S
H861        O862   0.965       .  S
H863        O864   0.965       .  S
C865        N866   1.366       .  A
C865        N870   1.371       .  A
C865        C892   1.455       .  S
N866        C867   1.362       .  A
C867       C1107   1.465       .  S
C867        N868   1.346       .  A
N868        C869   1.346       .  A
C869        C917   1.471       .  S
C869        N870   1.365       .  A
C871        N872   1.372       .  A
C871        N876   1.359       .  A
C871        C894   1.455       .  S
N872        C873   1.372       .  A
C873       C1077   1.484       .  S
C873        N874   1.348       .  A
N874        C875   1.346       .  A
C875        C944   1.465       .  S
C875        N876   1.358       .  A
C877        N878   1.375       .  A
C877        N882   1.374       .  A
C877        C889   1.479       .  S
N878        C879   1.372       .  A
C879       C1007   1.490       .  S
C879        N880   1.348       .  A
N880        C881   1.348       .  A
C881       C1097   1.486       .  S
C881        N882   1.371       .  A
C883        N884   1.361       .  A
C883        N888   1.359       .  A
C883        C896   1.435       .  S
N884        C885   1.360       .  A
C885       C1017   1.461       .  S
C885        N886   1.348       .  A
N886        C887   1.348       .  A
C887       C1084   1.458       .  S
C887        N888   1.358       .  A
C889        C890   1.231       .  T
C891        C892   1.217       .  T
C893        C894   1.217       .  T
C895        C896   1.205       .  T
C897        C898   1.219       .  T
C899        C900   1.215       .  T
C901        C902   1.211       .  T
C903        C904   1.212       .  T
C905        C906   1.217       .  T
C907        C908   1.213       .  T
C909        C910   1.202       .  T
C911        C912   1.232       .  T
C913        C914   1.411       .  A
C913        C918   1.401       .  A
C913        H919   1.083       .  S
C914        C915   1.407       .  A
C915        C916   1.403       .  A
C915        H920   1.083       .  S
C916        C917   1.405       .  A
C916        H921   1.083       .  S
C917        C918   1.402       .  A
C918        H922   1.084       .  S
C923        C924   1.399       .  A
C923        C928   1.395       .  A
C923        H929   1.083       .  S
C924        C925   1.404       .  A
C925        C926   1.394       .  A
C925        H930   1.083       .  S
C926        C927   1.404       .  A
C926        H931   1.083       .  S
C927        C928   1.411       .  A
C928        H932   1.083       .  S
C933        C934   1.406       .  A
C933        C938   1.400       .  A
C933        H939   1.083       .  S
C934        C935   1.410       .  A
C935        C936   1.402       .  A
C935        H940   1.081       .  S
C936        C937   1.401       .  A
C936        H941   1.083       .  S
C937        C938   1.405       .  A
C938        H942   1.083       .  S
C943        C944   1.406       .  A
C943        C948   1.395       .  A
C943        H949   1.083       .  S
C944        C945   1.398       .  A
C945        C946   1.391       .  A
C945        H950   1.083       .  S
C946        C947   1.409       .  A
C946        H951   1.082       .  S
C947        C948   1.403       .  A
C948        H952   1.083       .  S
C953        C954   1.403       .  A
C953        C958   1.396       .  A
C953        H959   1.083       .  S
C954        C955   1.409       .  A
C955        C956   1.394       .  A
C955        H960   1.082       .  S
C956        C957   1.399       .  A
C956        H961   1.083       .  S
C957        C958   1.404       .  A
C958        H962   1.083       .  S
C963        C964   1.406       .  A
C963        C968   1.400       .  A
C963        H969   1.083       .  S
C964        C965   1.409       .  A
C965        C966   1.400       .  A
C965        H970   1.081       .  S
C966        C967   1.401       .  A
C966        H971   1.084       .  S
C967        C968   1.405       .  A
C968        H972   1.084       .  S
C973        C974   1.410       .  A
C973        C978   1.396       .  A
C973        H979   1.082       .  S
C974        C975   1.403       .  A
C975        C976   1.393       .  A
C975        H980   1.083       .  S
C976        C977   1.404       .  A
C976        H981   1.084       .  S
C977        C978   1.400       .  A
C978        H982   1.083       .  S
C983        C984   1.410       .  A
C983        C988   1.401       .  A
C983        H989   1.082       .  S
C984        C985   1.406       .  A
C985        C986   1.399       .  A
C985        H990   1.083       .  S
C986        C987   1.403       .  A
C986        H991   1.083       .  S
C987        C988   1.402       .  A
C988        H992   1.084       .  S
C993        C994   1.408       .  A
C993        C998   1.395       .  A
C993        H999   1.080       .  S
C994        C995   1.406       .  A
C995        C996   1.396       .  A
C995       H1000   1.083       .  S
C996        C997   1.402       .  A
C996       H1001   1.084       .  S
C997        C998   1.398       .  A
C998       H1002   1.084       .  S
C1003      C1004   1.403       .  A
C1003      C1008   1.407       .  A
C1003      H1009   1.083       .  S
C1004      C1005   1.417       .  A
C1005      C1006   1.404       .  A
C1005      H1010   1.080       .  S
C1006      C1007   1.399       .  A
C1006      H1011   1.083       .  S
C1007      C1008   1.414       .  A
C1008      H1012   1.083       .  S
C1013      C1014   1.405       .  A
C1013      C1018   1.395       .  A
C1013      H1019   1.083       .  S
C1014      C1015   1.408       .  A
C1015      C1016   1.395       .  A
C1015      H1020   1.083       .  S
C1016      C1017   1.400       .  A
C1016      H1021   1.084       .  S
C1017      C1018   1.402       .  A
C1018      H1022   1.083       .  S
C1023      C1024   1.408       .  A
C1023      C1028   1.397       .  A
C1023      H1029   1.075       .  S
C1024      C1025   1.399       .  A
C1025      C1026   1.405       .  A
C1025      H1030   1.083       .  S
C1026      C1027   1.417       .  A
C1026      H1031   1.083       .  S
C1027      C1028   1.398       .  A
C1028      H1032   1.083       .  S
C1033      C1034   1.396       .  A
C1033      C1038   1.394       .  A
C1033      H1039   1.083       .  S
C1034      C1035   1.415       .  A
C1035      C1036   1.406       .  A
C1035      H1040   1.083       .  S
C1036      C1037   1.401       .  A
C1036      H1041   1.083       .  S
C1037      C1038   1.408       .  A
C1038      H1042   1.075       .  S
C1043      C1044   1.405       .  A
C1043      C1048   1.397       .  A
C1043      H1049   1.083       .  S
C1044      C1045   1.408       .  A
C1045      C1046   1.391       .  A
C1045      H1050   1.083       .  S
C1046      C1047   1.398       .  A
C1046      H1051   1.084       .  S
C1047      C1048   1.402       .  A
C1048      H1052   1.083       .  S
C1053      C1054   1.415       .  A
C1053      C1058   1.406       .  A
C1053      H1059   1.083   1_455  S
C1054      C1055   1.402       .  A
C1055      C1056   1.404       .  A
C1055      H1060   1.083       .  S
C1056      C1057   1.413       .  A
C1056      H1061   1.083       .  S
C1057      C1058   1.401       .  A
C1058      H1062   1.083       .  S
C1063      C1064   1.406       .  A
C1063      C1068   1.397       .  A
C1063      H1069   1.083       .  S
C1064      C1065   1.403       .  A
C1065      C1066   1.395       .  A
C1065      H1070   1.083       .  S
C1066      C1067   1.403       .  A
C1066      H1071   1.084       .  S
C1067      C1068   1.399       .  A
C1068      H1072   1.083       .  S
C1073      C1074   1.410       .  A
C1073      C1078   1.398       .  A
C1073      H1079   1.077       .  S
C1074      C1075   1.400       .  A
C1075      C1076   1.407       .  A
C1075      H1080   1.083       .  S
C1076      C1077   1.417       .  A
C1076      H1081   1.083       .  S
C1077      C1078   1.397       .  A
C1078      H1082   1.083       .  S
C1083      C1084   1.398       .  A
C1083      C1088   1.390       .  A
C1083      H1089   1.084       .  S
C1084      C1085   1.403       .  A
C1085      C1086   1.398       .  A
C1085      H1090   1.083       .  S
C1086      C1087   1.407       .  A
C1086      H1091   1.083       .  S
C1087      C1088   1.406       .  A
C1088      H1092   1.083       .  S
C1093      C1094   1.405       .  A
C1093      C1098   1.408       .  A
C1093      H1099   1.083       .  S
C1094      C1095   1.417       .  A
C1095      C1096   1.403       .  A
C1095      H1100   1.081       .  S
C1096      C1097   1.398       .  A
C1096      H1101   1.083       .  S
C1097      C1098   1.413       .  A
C1098      H1102   1.083       .  S
C1103      C1104   1.405       .  A
C1103      C1108   1.398       .  A
C1103      H1109   1.083       .  S
C1104      C1105   1.410       .  A
C1105      C1106   1.399       .  A
C1105      H1110   1.080       .  S
C1106      C1107   1.399       .  A
C1106      H1111   1.084       .  S
C1107      C1108   1.404       .  A
C1108      H1112   1.083       .  S
C1113      C1114   1.406       .  A
C1113      C1118   1.396       .  A
C1113      H1119   1.083       .  S
C1114      C1115   1.407       .  A
C1115      C1116   1.391       .  A
C1115      H1120   1.083       .  S
C1116      C1117   1.399       .  A
C1116      H1121   1.084       .  S
C1117      C1118   1.401       .  A
C1118      H1122   1.083       .  S
C1123      C1124   1.401       .  A
C1123      C1128   1.409       .  A
C1123      H1129   1.083       .  S
C1124      C1125   1.408       .  A
C1125      C1126   1.398       .  A
C1125      H1130   1.074       .  S
C1126      C1127   1.397       .  A
C1126      H1131   1.083       .  S
C1127      C1128   1.418       .  A
C1128      H1132   1.083       .  S
C1133      C1134   1.400       .  A
C1133      C1138   1.396       .  A
C1133      H1139   1.084       .  S
C1134      C1135   1.399       .  A
C1135      C1136   1.395       .  A
C1135      H1140   1.084       .  S
C1136      C1137   1.407       .  A
C1136      H1141   1.081       .  S
C1137      C1138   1.407       .  A
C1138      H1142   1.083       .  S
C1143      C1144   1.417       .  A
C1143      C1148   1.404       .  A
C1143      H1149   1.081       .  S
C1144      C1145   1.405       .  A
C1145      C1146   1.408       .  A
C1145      H1150   1.083       .  S
C1146      C1147   1.413       .  A
C1146      H1151   1.083       .  S
C1147      C1148   1.399       .  A
C1148      H1152   1.083       .  S
