geometry optimzed in LAMMPS
_audit_creation_date              2020-11-30 
_audit_creation_method            'lammps2cif' 
_symmetry_space_group_name_H-M    'P1' 
_symmetry_Int_Tables_number       1 
_symmetry_cell_setting            triclinic 
loop_ 
_symmetry_equiv_pos_as_xyz 
  x,y,z 
_cell_length_a                    46.717886756633916 
_cell_length_b                    46.34280648622715 
_cell_length_c                    45.621354217985186 
_cell_angle_alpha                 90.21940312430114 
_cell_angle_beta                  89.67697112957788 
_cell_angle_gamma                 90.19830629627117 
loop_ 
_atom_site_label 
_atom_site_type_symbol 
_atom_site_fract_x 
_atom_site_fract_y 
_atom_site_fract_z 
_atom_site_charge 
O1          O  0.30911318  0.90832477  0.72052536    -0.80680
O2          O  0.41240539  0.87036147  0.74361256    -0.80700
O3          O  0.34371296  0.81163375  0.71026519    -0.80710
O4          O  0.39395627  0.93256533  0.71566545    -0.80650
O5          O  0.36920349  0.83489483  0.74148577    -0.80780
O6          O  0.36321061  0.90645331  0.74136399    -0.80700
O7          O  0.43811088  0.89563943  0.71319000    -0.80680
O8          O  0.31786571  0.86166887  0.72375440    -0.80720
C9          C  0.30341666  0.88409926  0.73174535     1.09010
C10         C  0.43413155  0.88544068  0.73853097     1.08890
C11         C  0.35384090  0.81354376  0.73591213     1.09030
C12         C  0.37985832  0.92788834  0.73924983     1.08910
O13         O  0.34928100  0.93255451  0.68680792    -0.80680
O14         O  0.39122089  0.81057471  0.68555767    -0.80760
O15         O  0.30634761  0.83821381  0.67060923    -0.80690
O16         O  0.42381912  0.87775632  0.65512399    -0.80670
O17         O  0.43571159  0.84665462  0.68958306    -0.80730
O18         O  0.32037298  0.88410921  0.66744618    -0.80690
O19         O  0.38068231  0.91877278  0.65429207    -0.80650
O20         O  0.36261950  0.83184106  0.65361438    -0.80720
Co21       Co  0.34367213  0.89389979  0.70533420     1.51530
Co22       Co  0.40087220  0.84192668  0.71473782     1.51690
Co23       Co  0.34216769  0.84923301  0.68677904     1.51570
Co24       Co  0.40697497  0.90418806  0.68425938     1.51470
O25         O  0.37836917  0.87200318  0.69525315    -1.42610
C26         C  0.36356044  0.93750521  0.66378249     1.08940
C27         C  0.37926658  0.81150903  0.66046835     1.09030
C28         C  0.30172174  0.86390666  0.66222562     1.08960
C29         C  0.44098861  0.85935865  0.66542379     1.08940
O30         O  0.20001928  0.88944250  0.82635378    -0.80680
O31         O  0.17423557  0.83097123  0.88456740    -0.80700
O32         O  0.22703440  0.84434862  0.88719517    -0.80710
O33         O  0.12928896  0.87022835  0.84747510    -0.80650
O34         O  0.21190161  0.82918802  0.92973668    -0.80780
O35         O  0.14455531  0.91091629  0.83061352    -0.80700
O36         O  0.13183373  0.84106668  0.89971592    -0.80680
O37         O  0.23861953  0.88979821  0.85424407    -0.80720
C38         C  0.22660842  0.88616362  0.82941958     1.09010
C39         C  0.14981901  0.82233127  0.89157624     1.08890
C40         C  0.22792693  0.82529884  0.90775244     1.09030
C41         C  0.13488576  0.88623443  0.82589834     1.08910
O42         O  0.16368087  0.94936489  0.87300907    -0.80680
O43         O  0.21529059  0.88645961  0.93970326    -0.80760
O44         O  0.22239772  0.93174145  0.90182283    -0.80690
O45         O  0.13396588  0.89458244  0.93186128    -0.80670
O46         O  0.16318008  0.85892702  0.94282440    -0.80730
O47         O  0.21811950  0.93895343  0.85585528    -0.80690
O48         O  0.12276843  0.92623262  0.88114797    -0.80650
O49         O  0.25567210  0.88627818  0.91416730    -0.80720
Co50       Co  0.18129906  0.91922292  0.84952068     1.51530
Co51       Co  0.19272388  0.86047292  0.91072453     1.51690
Co52       Co  0.22002140  0.88834917  0.89428046     1.51570
Co53       Co  0.13281183  0.88387918  0.88953449     1.51470
O54         O  0.17716547  0.89123344  0.88430464    -1.42610
C55         C  0.13738156  0.94964521  0.87918005     1.08940
C56         C  0.24295440  0.88755976  0.93889999     1.09030
C57         C  0.22832955  0.94698942  0.87971611     1.08960
C58         C  0.14492729  0.87777487  0.95057333     1.08940
O59         O  0.37456158  0.75095998  0.85880915    -0.80680
O60         O  0.33284501  0.63519873  0.88815571    -0.80700
O61         O  0.41188061  0.66706361  0.83339872    -0.80710
O62         O  0.31545239  0.71789994  0.93282144    -0.80650
O63         O  0.37169471  0.64162608  0.83936128    -0.80780
O64         O  0.33171107  0.73471802  0.89103470    -0.80700
O65         O  0.31780986  0.67996977  0.88702080    -0.80680
O66         O  0.38294283  0.71469082  0.83105241    -0.80720
C67         C  0.37388311  0.73998574  0.83372807     1.09010
C68         C  0.31266442  0.65344647  0.88824187     1.08890
C69         C  0.39202433  0.65105871  0.82316487     1.09030
C70         C  0.31254831  0.73503312  0.91139781     1.08910
O71         O  0.37523000  0.76238507  0.91709737    -0.80680
O72         O  0.41845977  0.63531782  0.87860548    -0.80760
O73         O  0.43824953  0.72164204  0.85150615    -0.80690
O74         O  0.34721953  0.66705285  0.94125283    -0.80670
O75         O  0.38100481  0.63692303  0.92566122    -0.80730
O76         O  0.41920110  0.73071814  0.89587142    -0.80690
O77         O  0.37249855  0.72152048  0.94157068    -0.80650
O78         O  0.43315686  0.67821401  0.89096382    -0.80720
Co79       Co  0.37522283  0.72779435  0.89489986     1.51530
Co80       Co  0.37565117  0.64017847  0.88291958     1.51690
Co81       Co  0.40692609  0.69795395  0.86289300     1.51570
Co82       Co  0.34643257  0.69884379  0.91240464     1.51470
O83         O  0.37440616  0.68464076  0.88281097    -1.42610
C84         C  0.37537570  0.74937842  0.94145532     1.08940
C85         C  0.43881707  0.65209682  0.88562287     1.09030
C86         C  0.43741455  0.73664359  0.87514787     1.08960
C87         C  0.36485730  0.64681574  0.94557319     1.08940
O88         O  0.32503368  0.04286692  0.84627380    -0.80680
O89         O  0.40919883  0.10448058  0.92360320    -0.80700
O90         O  0.37699946  0.00829845  0.91059355    -0.80710
O91         O  0.32613814  0.12030012  0.87542370    -0.80650
O92         O  0.38616121  0.05142627  0.92914954    -0.80780
O93         O  0.32326790  0.09977293  0.83192554    -0.80700
O94         O  0.36583350  0.12079666  0.91828137    -0.80680
O95         O  0.33283067  0.04239097  0.89388168    -0.80720
C96         C  0.31695765  0.03611840  0.87231088     1.09010
C97         C  0.38713883  0.11630448  0.93446132     1.08890
C98         C  0.38118676  0.02424252  0.93258224     1.09030
C99         C  0.31123561  0.11097708  0.85433493     1.08910
O100        O  0.38251074  0.09651924  0.81057546    -0.80680
O101        O  0.44094843  0.05663907  0.91007257    -0.80760
O102        O  0.36797883  0.01123575  0.85420184    -0.80690
O103        O  0.41191133  0.13441721  0.87562954    -0.80670
O104        O  0.42946865  0.09214287  0.86425862    -0.80730
O105        O  0.38407770  0.04072557  0.82176584    -0.80690
O106        O  0.36813534  0.13664066  0.83082409    -0.80650
O107        O  0.41759408  0.03226652  0.87627774    -0.80720
Co108      Co  0.35516351  0.07058716  0.82982912     1.51530
Co109      Co  0.40661682  0.07207479  0.89411305     1.51690
Co110      Co  0.37449944  0.04049991  0.88598973     1.51570
Co111      Co  0.36837895  0.12519978  0.87477614     1.51470
O112        O  0.37227964  0.08081823  0.86923133    -1.42610
C113        C  0.37696201  0.12284466  0.80816237     1.08940
C114        C  0.44034541  0.03596797  0.89187880     1.09030
C115        C  0.37792683  0.01538028  0.82892614     1.08960
C116        C  0.43358822  0.11855452  0.86916112     1.08940
O117        O  0.36205007  0.83237827  0.05843819    -0.80680
O118        O  0.42272734  0.92266876  0.12355176    -0.80700
O119        O  0.41235472  0.89047842  0.03491173    -0.80710
O120        O  0.37163406  0.83980293  0.13279962    -0.80650
O121        O  0.43675616  0.91460326  0.06708472    -0.80780
O122        O  0.36250196  0.82952718  0.08594174    -0.80700
O123        O  0.41507933  0.87833596  0.13883623    -0.80680
O124        O  0.36878462  0.86096807  0.02178786    -0.80720
C125        C  0.36793630  0.83551750  0.03139650     1.09010
C126        C  0.43109379  0.90004122  0.13643761     1.08890
C127        C  0.43597995  0.90031194  0.04364139     1.09030
C128        C  0.36995057  0.82158918  0.11172196     1.08910
O129        O  0.32151382  0.85337978  0.10901290    -0.80680
O130        O  0.38673875  0.94406185  0.04717818    -0.80760
O131        O  0.32802871  0.90162460  0.05019350    -0.80690
O132        O  0.37555863  0.92660469  0.14648729    -0.80670
O133        O  0.36587842  0.94332029  0.10380018    -0.80730
O134        O  0.31288567  0.85696784  0.05553582    -0.80690
O135        O  0.33153914  0.89060970  0.13508553    -0.80650
O136        O  0.36765021  0.91787748  0.01144365    -0.80720
Co137      Co  0.34584950  0.86825060  0.07671827     1.51530
Co138      Co  0.40065965  0.92732143  0.08611702     1.51690
Co139      Co  0.37195115  0.89704946  0.04649387     1.51570
Co140      Co  0.37373377  0.88376911  0.13474126     1.51470
O141        O  0.38128502  0.88608411  0.08913296    -1.42610
C142        C  0.31407730  0.87131095  0.12804386     1.08940
C143        C  0.37654150  0.94176848  0.02120835     1.09030
C144        C  0.31033779  0.88124727  0.04330250     1.08960
C145        C  0.36805046  0.94774255  0.13068812     1.08940
O146        O  0.53408546  0.84888025  0.82518083    -0.80680
O147        O  0.59692419  0.93431348  0.92401000    -0.80700
O148        O  0.50827533  0.91899520  0.89248881    -0.80710
O149        O  0.61844366  0.88016761  0.84096734    -0.80650
O150        O  0.54635921  0.94354621  0.90148443    -0.80780
O151        O  0.57480908  0.89130912  0.82705752    -0.80700
O152        O  0.62150868  0.92444710  0.88308028    -0.80680
O153        O  0.52040826  0.88933999  0.84676315    -0.80720
C154        C  0.51828927  0.87098782  0.82578673     1.09010
C155        C  0.61191678  0.94236617  0.90201565     1.08890
C156        C  0.52053431  0.94305188  0.89413032     1.09030
C157        C  0.60087555  0.88750766  0.82094176     1.08910
O158        O  0.58526677  0.83585000  0.84919436    -0.80680
O159        O  0.54356512  0.92041200  0.95584561    -0.80760
O160        O  0.49507335  0.86131141  0.89091092    -0.80690
O161        O  0.62310424  0.88390608  0.92940423    -0.80670
O162        O  0.57939803  0.87565816  0.94175095    -0.80730
O163        O  0.53490529  0.83675529  0.88330731    -0.80690
O164        O  0.61080543  0.83859254  0.88901109    -0.80650
O165        O  0.52712211  0.87959024  0.93586034    -0.80720
Co166      Co  0.55598426  0.86573187  0.85597309     1.51530
Co167      Co  0.56243475  0.90895460  0.92074911     1.51690
Co168      Co  0.52953685  0.88226800  0.89022902     1.51570
Co169      Co  0.61603601  0.88189186  0.88562811     1.51470
O170        O  0.57282531  0.89151088  0.88550128    -1.42610
C171        C  0.59900311  0.82343059  0.86914313     1.08940
C172        C  0.52643204  0.89898604  0.95662287     1.09030
C173        C  0.50763237  0.83713979  0.88859227     1.08960
C174        C  0.60488101  0.87869687  0.94920831     1.08940
O175        O  0.86282671  0.32890249  0.72337006    -0.80680
O176        O  0.89993827  0.44953652  0.71251659    -0.80700
O177        O  0.90940486  0.36883720  0.73870745    -0.80710
O178        O  0.83483397  0.38477236  0.74306589    -0.80650
O179        O  0.93487198  0.40215459  0.71553181    -0.80780
O180        O  0.81427519  0.35626733  0.71174955    -0.80700
O181        O  0.87139041  0.42860099  0.74393705    -0.80680
O182        O  0.90676088  0.31509586  0.71328344    -0.80720
C183        C  0.88373565  0.31122967  0.72729495     1.09010
C184        C  0.88734139  0.44932330  0.73711456     1.08890
C185        C  0.93081414  0.38570728  0.73771531     1.09030
C186        C  0.81573773  0.36656147  0.73740593     1.08910
O187        O  0.83232015  0.37464781  0.65464454    -0.80680
O188        O  0.91953280  0.38963816  0.65352468    -0.80760
O189        O  0.88243518  0.33192726  0.66283534    -0.80690
O190        O  0.85048107  0.44900248  0.68775411    -0.80670
O191        O  0.88218676  0.43375392  0.65491089    -0.80730
O192        O  0.83782475  0.31800646  0.67154768    -0.80690
O193        O  0.81224256  0.40454894  0.68652417    -0.80650
O194        O  0.93310643  0.35648117  0.68344809    -0.80720
Co195      Co  0.85043861  0.35384367  0.68732989     1.51530
Co196      Co  0.90714006  0.41662370  0.68431773     1.51690
Co197      Co  0.89451805  0.35234866  0.70190837     1.51570
Co198      Co  0.84390605  0.41504139  0.71471735     1.51470
O199        O  0.87395713  0.38980086  0.69616277    -1.42610
C200        C  0.81200020  0.39128398  0.66197112     1.08940
C201        C  0.93766344  0.37129921  0.66087248     1.09030
C202        C  0.86174334  0.31359454  0.65898180     1.08960
C203        C  0.86380788  0.45181172  0.66343941     1.08940
O204        O  0.86765868  0.23207654  0.84491046    -0.80680
O205        O  0.83909485  0.13113064  0.87228775    -0.80700
O206        O  0.86910648  0.17780123  0.83319645    -0.80710
O207        O  0.81152152  0.20741691  0.89477893    -0.80650
O208        O  0.89000030  0.13809105  0.84351002    -0.80780
O209        O  0.84044288  0.24461842  0.89594796    -0.80700
O210        O  0.81655579  0.14995583  0.91017529    -0.80680
O211        O  0.90972327  0.21956894  0.82799011    -0.80720
C212        C  0.88679708  0.23352571  0.82445676     1.09010
C213        C  0.81620451  0.13712729  0.88583930     1.08890
C214        C  0.87922844  0.15440714  0.82453771     1.09030
C215        C  0.81523647  0.23441807  0.89367967     1.08910
O216        O  0.89035134  0.22381375  0.93033876    -0.80680
O217        O  0.91981245  0.14414190  0.89812493    -0.80760
O218        O  0.92284687  0.22515635  0.88461428    -0.80690
O219        O  0.85798312  0.16622751  0.95235976    -0.80670
O220        O  0.86972363  0.12644812  0.92832645    -0.80730
O221        O  0.89504673  0.26289407  0.88626984    -0.80690
O222        O  0.84634167  0.22158721  0.94413637    -0.80650
O223        O  0.92793341  0.17286143  0.86043860    -0.80720
Co224      Co  0.87835669  0.22517676  0.88844233     1.51530
Co225      Co  0.87896591  0.13837795  0.88646053     1.51690
Co226      Co  0.89412595  0.19971816  0.86098998     1.51570
Co227      Co  0.83573114  0.18588219  0.92254665     1.51470
O228        O  0.86960831  0.18242308  0.89298417    -1.42610
C229        C  0.87111923  0.23142774  0.94774846     1.08940
C230        C  0.93723073  0.15692749  0.88097591     1.09030
C231        C  0.92002553  0.25270866  0.88738358     1.08960
C232        C  0.86560416  0.14028412  0.95212977     1.08940
O233        O  0.71426274  0.37911108  0.83423761    -0.80680
O234        O  0.66698542  0.32893555  0.87800918    -0.80700
O235        O  0.71932916  0.33468796  0.88028137    -0.80710
O236        O  0.63591515  0.37958940  0.84197711    -0.80650
O237        O  0.70355067  0.31605056  0.92245147    -0.80780
O238        O  0.66533294  0.41487737  0.82994948    -0.80700
O239        O  0.62450350  0.34351102  0.88835515    -0.80680
O240        O  0.75406632  0.37513419  0.85970174    -0.80720
C241        C  0.74127365  0.37266035  0.83535142     1.09010
C242        C  0.64108344  0.32302970  0.88146485     1.08890
C243        C  0.72140519  0.31581566  0.90109610     1.09030
C244        C  0.64642279  0.39649711  0.82330405     1.08910
O245        O  0.67853093  0.44376503  0.88253364    -0.80680
O246        O  0.70296687  0.37063305  0.94437692    -0.80760
O247        O  0.73104158  0.42200790  0.88374456    -0.80690
O248        O  0.62928782  0.39065230  0.92733255    -0.80670
O249        O  0.65143774  0.34904866  0.93746524    -0.80730
O250        O  0.71948456  0.43762146  0.83998915    -0.80690
O251        O  0.63306417  0.43060573  0.88047319    -0.80650
O252        O  0.74042485  0.37834162  0.91765837    -0.80720
Co253      Co  0.69495791  0.41070840  0.86051866     1.51530
Co254      Co  0.68542058  0.35085470  0.91032650     1.51690
Co255      Co  0.71958750  0.37942747  0.88057792     1.51570
Co256      Co  0.63352414  0.38639951  0.88460857     1.51470
O257        O  0.67700069  0.38577717  0.89143700    -1.42610
C258        C  0.65228100  0.45028876  0.88299982     1.08940
C259        C  0.72913722  0.37656677  0.94257391     1.09030
C260        C  0.73585181  0.43892706  0.86208250     1.08960
C261        C  0.63530671  0.37023108  0.94479861     1.08940
O262        O  0.03484390  0.35317571  0.82669067    -0.80680
O263        O  0.10336744  0.43130569  0.89797774    -0.80700
O264        O  0.01319904  0.41982758  0.89889391    -0.80710
O265        O  0.12022784  0.37785588  0.83994611    -0.80650
O266        O  0.04959851  0.44834755  0.89157368    -0.80780
O267        O  0.07757561  0.39344613  0.82996592    -0.80700
O268        O  0.13762665  0.42700646  0.87273405    -0.80680
O269        O  0.02266075  0.39397040  0.84739129    -0.80720
C270        C  0.01912556  0.37540498  0.82655848     1.09010
C271        C  0.12279190  0.44472140  0.88664292     1.08890
C272        C  0.02308325  0.44466964  0.89374154     1.09030
C273        C  0.10250963  0.38711857  0.82155761     1.08910
O274        O  0.08487091  0.33538383  0.85499905    -0.80680
O275        O  0.03858421  0.41780934  0.94590563    -0.80760
O276        O  0.99567565  0.36530007  0.89063298    -0.80690
O277        O  0.13260030  0.38965158  0.92508010    -0.80670
O278        O  0.09328808  0.40367682  0.94896818    -0.80730
O279        O  0.03357275  0.33836198  0.88342131    -0.80690
O280        O  0.11433764  0.34383552  0.89180463    -0.80650
O281        O  0.03490450  0.37260694  0.93349869    -0.80720
Co282      Co  0.05723819  0.36809167  0.85867903     1.51530
Co283      Co  0.07162279  0.42527963  0.91972070     1.51690
Co284      Co  0.03257355  0.38271126  0.89061153     1.51570
Co285      Co  0.12179003  0.38519565  0.88289123     1.51470
O286        O  0.07557195  0.39166674  0.89107707    -1.42610
C287        C  0.10122545  0.32637550  0.87515765     1.08940
C288        C  0.03046978  0.39258405  0.95205983     1.09030
C289        C  0.00640724  0.34039231  0.88865355     1.08960
C290        C  0.11833224  0.39349491  0.94848046     1.08940
O291        O  0.87659936  0.33237200  0.04500749    -0.80680
O292        O  0.92790599  0.37048372  0.09565083    -0.80700
O293        O  0.92352615  0.37488149  0.04075478    -0.80710
O294        O  0.87622668  0.33621702  0.12779491    -0.80650
O295        O  0.94372716  0.41440636  0.05999468    -0.80780
O296        O  0.84292223  0.32623874  0.09509861    -0.80700
O297        O  0.91377868  0.38170608  0.13907367    -0.80680
O298        O  0.88123327  0.35822591  0.00460531    -0.80720
C299        C  0.88057436  0.33375961  0.01698926     1.09010
C300        C  0.93402781  0.37439085  0.12198100     1.08890
C301        C  0.94480949  0.39305423  0.04217288     1.09030
C302        C  0.85971080  0.31849358  0.11528398     1.08910
O303        O  0.81560133  0.38061348  0.08462934    -0.80680
O304        O  0.89110389  0.43863657  0.05975699    -0.80760
O305        O  0.83623273  0.38349153  0.03102528    -0.80690
O306        O  0.86731637  0.42060107  0.13396296    -0.80670
O307        O  0.90947498  0.42976360  0.11211802    -0.80730
O308        O  0.81886173  0.34050334  0.04154869    -0.80690
O309        O  0.82702291  0.37379709  0.13068368    -0.80650
O310        O  0.88183214  0.41511409  0.02020541    -0.80720
Co311      Co  0.84700555  0.35818095  0.06636757     1.51530
Co312      Co  0.90829874  0.40359372  0.07703774     1.51690
Co313      Co  0.87884690  0.37786557  0.04096409     1.51570
Co314      Co  0.87101258  0.37847791  0.13005343     1.51470
O315        O  0.87302588  0.38632953  0.08533988    -1.42610
C316        C  0.80808714  0.37677284  0.11076595     1.08940
C317        C  0.88487859  0.43885287  0.03308772     1.09030
C318        C  0.81687518  0.36398279  0.02743750     1.08960
C319        C  0.88730749  0.43791651  0.12660423     1.08940
O320        O  0.82537754  0.53980185  0.89147475    -0.80680
O321        O  0.86480835  0.58868068  0.94144428    -0.80700
O322        O  0.87494992  0.52982805  0.92732412    -0.80710
O323        O  0.83355657  0.63547984  0.88068245    -0.80650
O324        O  0.90869239  0.55170175  0.95247306    -0.80780
O325        O  0.81596444  0.59413366  0.89365673    -0.80700
O326        O  0.87704581  0.63154334  0.92589191    -0.80680
O327        O  0.85594125  0.51037287  0.87395734    -0.80720
C328        C  0.83067400  0.51519801  0.88191806     1.09010
C329        C  0.87018078  0.61468759  0.94704814     1.08890
C330        C  0.88988145  0.53195455  0.95092806     1.09030
C331        C  0.81217501  0.62019677  0.88869412     1.08910
O332        O  0.83590253  0.60132292  0.83226300    -0.80680
O333        O  0.92869248  0.54980086  0.89626923    -0.80760
O334        O  0.89618541  0.54316174  0.84281585    -0.80690
O335        O  0.91801726  0.62033705  0.87821396    -0.80670
O336        O  0.92366027  0.60115545  0.92141436    -0.80730
O337        O  0.85025322  0.54438728  0.83146279    -0.80690
O338        O  0.87806232  0.62190505  0.83796934    -0.80650
O339        O  0.91051389  0.50681793  0.88698375    -0.80720
Co340      Co  0.83355073  0.57052160  0.86349909     1.51530
Co341      Co  0.89433446  0.56933857  0.91758668     1.51690
Co342      Co  0.88659835  0.53922248  0.88435558     1.51570
Co343      Co  0.87629941  0.62453408  0.88103024     1.51470
O344        O  0.87128366  0.57994011  0.88227131    -1.42610
C345        C  0.85809160  0.61348121  0.82163981     1.08940
C346        C  0.93201448  0.52260402  0.89184321     1.09030
C347        C  0.87609756  0.53711900  0.82532238     1.08960
C348        C  0.93377962  0.61460210  0.89949310     1.08940
O349        O  0.82164479  0.89334941  0.23843822    -0.80680
O350        O  0.93166448  0.85843575  0.22577282    -0.80700
O351        O  0.84774881  0.82898861  0.22225026    -0.80710
O352        O  0.89357479  0.94983555  0.20526452    -0.80650
O353        O  0.87611119  0.86004982  0.24456903    -0.80780
O354        O  0.86203859  0.93387079  0.23637790    -0.80700
O355        O  0.91686970  0.90353981  0.22719248    -0.80680
O356        O  0.80144590  0.86174660  0.20978559    -0.80720
C357        C  0.80119627  0.87672467  0.23298059     1.09010
C358        C  0.93300464  0.88336009  0.23684705     1.08890
C359        C  0.86057059  0.83768344  0.24543135     1.09030
C360        C  0.87951477  0.95315530  0.22873308     1.08910
O361        O  0.84671370  0.94669411  0.17628895    -0.80680
O362        O  0.89494833  0.82734597  0.19607580    -0.80760
O363        O  0.82097516  0.87150474  0.15135008    -0.80690
O364        O  0.93554946  0.92031505  0.17370605    -0.80670
O365        O  0.92175892  0.87480106  0.17048623    -0.80730
O366        O  0.80380932  0.90730018  0.17872732    -0.80690
O367        O  0.88124653  0.92584988  0.15008722    -0.80650
O368        O  0.86605378  0.83421222  0.16006906    -0.80720
Co369      Co  0.83499882  0.91854702  0.20720974     1.51530
Co370      Co  0.89694214  0.86865436  0.20795711     1.51690
Co371      Co  0.83621742  0.85136343  0.18566014     1.51570
Co372      Co  0.89777994  0.91064513  0.18666932     1.51470
O373        O  0.86142447  0.88737518  0.19398623    -1.42610
C374        C  0.86328104  0.94610856  0.15400209     1.08940
C375        C  0.88289958  0.81783761  0.17339621     1.09030
C376        C  0.80260778  0.89098662  0.15610479     1.08960
C377        C  0.94111346  0.89445819  0.16619767     1.08940
O378        O  0.92600911  0.72895161  0.35353510    -0.80680
O379        O  0.84264998  0.66960233  0.43508362    -0.80700
O380        O  0.88049326  0.76491409  0.42234658    -0.80710
O381        O  0.92319564  0.65123853  0.38550659    -0.80650
O382        O  0.86739422  0.72283148  0.44083537    -0.80780
O383        O  0.92575196  0.67113890  0.34141788    -0.80700
O384        O  0.88539474  0.65178046  0.42981361    -0.80680
O385        O  0.92177136  0.72876695  0.40170090    -0.80720
C386        C  0.93582472  0.73552953  0.37893200     1.09010
C387        C  0.86449262  0.65807765  0.44610203     1.08890
C388        C  0.87545286  0.74939273  0.44447944     1.09030
C389        C  0.93683709  0.65709826  0.36248157     1.08910
O390        O  0.86466803  0.67537839  0.32538839    -0.80680
O391        O  0.81193937  0.71729489  0.42371256    -0.80760
O392        O  0.88412851  0.76069386  0.36402526    -0.80690
O393        O  0.83945497  0.63887062  0.38801209    -0.80670
O394        O  0.82170738  0.68128893  0.37737084    -0.80730
O395        O  0.86490029  0.73081740  0.33389486    -0.80690
O396        O  0.88125515  0.63557707  0.34296882    -0.80650
O397        O  0.83669880  0.74185847  0.39061637    -0.80720
Co398      Co  0.89418891  0.70102226  0.34056367     1.51530
Co399      Co  0.84565726  0.70173230  0.40639583     1.51690
Co400      Co  0.87989164  0.73235927  0.39742134     1.51570
Co401      Co  0.88204319  0.64736898  0.38653073     1.51470
O402        O  0.87928988  0.69194510  0.38100893    -1.42610
C403        C  0.87116821  0.64961490  0.32141992     1.08940
C404        C  0.81315301  0.73715754  0.40481612     1.09030
C405        C  0.87093887  0.75636153  0.34034075     1.08960
C406        C  0.81818941  0.65448787  0.38089174     1.08940
O407        O  0.70723130  0.90977629  0.32938997    -0.80680
O408        O  0.65541615  0.83226128  0.41916914    -0.80700
O409        O  0.74594940  0.84467301  0.37346942    -0.80710
O410        O  0.63019806  0.88016426  0.33788579    -0.80650
O411        O  0.70597146  0.82695535  0.39203743    -0.80780
O412        O  0.65083493  0.92289772  0.33221592    -0.80700
O413        O  0.63547424  0.83756698  0.37664658    -0.80680
O414        O  0.70626537  0.86257315  0.33494248    -0.80720
C415        C  0.71309020  0.88439114  0.32004164     1.09010
C416        C  0.64327837  0.82124836  0.39698376     1.08890
C417        C  0.73190448  0.82335851  0.38282626     1.09030
C418        C  0.63690565  0.90135783  0.32197615     1.08910
O419        O  0.65945560  0.94274693  0.39331998    -0.80680
O420        O  0.70524786  0.84579662  0.44689197    -0.80760
O421        O  0.74224928  0.90044685  0.36809615    -0.80690
O422        O  0.62613382  0.87916996  0.42618107    -0.80670
O423        O  0.66959769  0.89149315  0.43845470    -0.80730
O424        O  0.71549535  0.93232337  0.38897696    -0.80690
O425        O  0.61868704  0.92273179  0.38221741    -0.80650
O426        O  0.72773926  0.87709191  0.41846467    -0.80720
Co427      Co  0.68266791  0.92493059  0.36248297     1.51530
Co428      Co  0.68687558  0.86170572  0.41388270     1.51690
Co429      Co  0.71386089  0.86877044  0.37628730     1.51570
Co430      Co  0.63040589  0.87999430  0.38093158     1.51470
O431        O  0.67449663  0.88579097  0.37993780    -1.42610
C432        C  0.63302917  0.94506827  0.38959109     1.08940
C433        C  0.72707113  0.86117770  0.44144286     1.09030
C434        C  0.74003728  0.92464969  0.38047638     1.08960
C435        C  0.64402192  0.88735677  0.44582690     1.08940
O436        O  0.02863900  0.87834457  0.33560274    -0.80680
O437        O  0.08956439  0.93373179  0.37826258    -0.80700
O438        O  0.03751608  0.93475362  0.37613924    -0.80710
O439        O  0.12724904  0.87609830  0.34920875    -0.80650
O440        O  0.05125493  0.95206855  0.41923280    -0.80780
O441        O  0.08669956  0.89108590  0.33193346    -0.80700
O442        O  0.12905194  0.91716345  0.39481632    -0.80680
O443        O  0.99500012  0.89934602  0.36166429    -0.80720
C444        C  0.00433758  0.89075121  0.33718729     1.09010
C445        C  0.11517592  0.93816299  0.38466793     1.08890
C446        C  0.03648091  0.95481402  0.39604392     1.09030
C447        C  0.11249228  0.88490793  0.32735523     1.08910
O448        O  0.09800760  0.83342956  0.35109502    -0.80680
O449        O  0.04449503  0.89824841  0.44377541    -0.80760
O450        O  0.01417919  0.85204180  0.39005830    -0.80690
O451        O  0.11271796  0.87364497  0.43671644    -0.80670
O452        O  0.09646068  0.91784079  0.44031439    -0.80730
O453        O  0.04243009  0.82533126  0.36346781    -0.80690
O454        O  0.11168742  0.83283848  0.39604550    -0.80650
O455        O  0.00754877  0.90090083  0.41689885    -0.80720
Co456      Co  0.06483405  0.85931874  0.34940447     1.51530
Co457      Co  0.06611993  0.91504383  0.40959718     1.51690
Co458      Co  0.02975254  0.89131796  0.38160987     1.51570
Co459      Co  0.11684129  0.87516529  0.39375956     1.51470
O460        O  0.07130014  0.87773059  0.39139882    -1.42610
C461        C  0.10558790  0.81939602  0.37315290     1.08940
C462        C  0.01779597  0.89959490  0.44196525     1.09030
C463        C  0.02038311  0.82777410  0.37925871     1.08960
C464        C  0.10679540  0.89545740  0.45206355     1.08940
O465        O  0.82550478  0.03468680  0.38805532    -0.80680
O466        O  0.90015181  0.09470980  0.44109725    -0.80700
O467        O  0.87330662  0.01931074  0.42125819    -0.80710
O468        O  0.83372562  0.13051132  0.37621809    -0.80650
O469        O  0.89917586  0.04226157  0.45361924    -0.80780
O470        O  0.81803893  0.09014473  0.39274993    -0.80700
O471        O  0.86938793  0.12595938  0.42551704    -0.80680
O472        O  0.85609903  0.00554117  0.36885345    -0.80720
C473        C  0.83142161  0.00959106  0.37978743     1.09010
C474        C  0.88370590  0.11522555  0.44630465     1.08890
C475        C  0.88173971  0.02224861  0.44787125     1.09030
C476        C  0.81257865  0.11496168  0.38447306     1.08910
O477        O  0.83951565  0.09837712  0.33118749    -0.80680
O478        O  0.92778619  0.04381249  0.40427634    -0.80760
O479        O  0.89697336  0.04063166  0.33825836    -0.80690
O480        O  0.92016536  0.11659349  0.38667909    -0.80670
O481        O  0.92778462  0.07207275  0.40435034    -0.80730
O482        O  0.85057397  0.04192222  0.32894933    -0.80690
O483        O  0.88243471  0.11756134  0.33858090    -0.80650
O484        O  0.91458818  0.00341757  0.38122514    -0.80720
Co485      Co  0.83459359  0.06669247  0.36166515     1.51530
Co486      Co  0.88811707  0.06113160  0.41830705     1.51690
Co487      Co  0.88758938  0.03392017  0.37993672     1.51570
Co488      Co  0.87667416  0.11961744  0.38179984     1.51470
O489        O  0.87131526  0.07459523  0.38140775    -1.42610
C490        C  0.86190546  0.11121655  0.32155605     1.08940
C491        C  0.93408666  0.01857151  0.39309026     1.09030
C492        C  0.87623524  0.03636054  0.32077742     1.08960
C493        C  0.93720229  0.09669881  0.39512049     1.08940
O494        O  0.85815082  0.83051968  0.55773916    -0.80680
O495        O  0.92634482  0.91946176  0.61772404    -0.80700
O496        O  0.90589478  0.89773384  0.52153502    -0.80710
O497        O  0.87447647  0.84145858  0.63069060    -0.80650
O498        O  0.93537477  0.90586688  0.55843193    -0.80780
O499        O  0.85326095  0.83352965  0.58745484    -0.80700
O500        O  0.92095447  0.87608847  0.63337574    -0.80680
O501        O  0.89554970  0.84709774  0.53798989    -0.80720
C502        C  0.87958576  0.82586765  0.54097167     1.09010
C503        C  0.93724135  0.89578911  0.62405091     1.08890
C504        C  0.93119788  0.90064237  0.53152265     1.09030
C505        C  0.86385101  0.82470455  0.61188989     1.08910
O506        O  0.81898994  0.87215231  0.59583684    -0.80680
O507        O  0.88997377  0.94218830  0.54569902    -0.80760
O508        O  0.85031860  0.87288215  0.50776614    -0.80690
O509        O  0.88204064  0.92590537  0.64426239    -0.80670
O510        O  0.87270941  0.94404516  0.60157060    -0.80730
O511        O  0.81898068  0.86280833  0.54214380    -0.80690
O512        O  0.83642875  0.88955139  0.63709307    -0.80650
O513        O  0.84980621  0.91941404  0.54342080    -0.80720
Co514      Co  0.84980788  0.87305905  0.56769191     1.51530
Co515      Co  0.90515623  0.92574641  0.58146326     1.51690
Co516      Co  0.87221792  0.88219793  0.54404898     1.51570
Co517      Co  0.87875892  0.88343934  0.63293873     1.51470
O518        O  0.88497950  0.88780003  0.58692289    -1.42610
C519        C  0.81575644  0.88111392  0.62149372     1.08940
C520        C  0.86465341  0.94144020  0.53737977     1.09030
C521        C  0.82485981  0.86508843  0.51511999     1.08960
C522        C  0.87498693  0.94731268  0.62858741     1.08940
O523        O  0.09798801  0.06211155  0.47374353    -0.80680
O524        O  0.12381513  0.16967890  0.48959280    -0.80700
O525        O  0.19098508  0.10801548  0.46069355    -0.80710
O526        O  0.06379601  0.14520258  0.46024600    -0.80650
O527        O  0.16529778  0.13271473  0.49012652    -0.80780
O528        O  0.09061562  0.11890419  0.48933865    -0.80700
O529        O  0.09707862  0.19230068  0.45853139    -0.80680
O530        O  0.14305488  0.07669191  0.47680592    -0.80720
C531        C  0.12242478  0.05993076  0.48533743     1.09010
C532        C  0.10736612  0.19006137  0.48420893     1.08890
C533        C  0.18914720  0.12193387  0.48459985     1.09030
C534        C  0.06870703  0.13473055  0.48530303     1.08910
O535        O  0.06983402  0.09670920  0.43564374    -0.80680
O536        O  0.18565862  0.15457910  0.43266715    -0.80760
O537        O  0.16780976  0.06298389  0.42540082    -0.80690
O538        O  0.11655350  0.17657408  0.39985951    -0.80670
O539        O  0.14457051  0.19438680  0.43458561    -0.80730
O540        O  0.12135991  0.07165797  0.42011075    -0.80690
O541        O  0.07709485  0.12886362  0.40146500    -0.80650
O542        O  0.17078633  0.11891754  0.40375362    -0.80720
Co543      Co  0.10786809  0.09736389  0.45557924     1.51530
Co544      Co  0.15338755  0.16132400  0.46136702     1.51690
Co545      Co  0.15380445  0.09940093  0.43828019     1.51570
Co546      Co  0.09144100  0.15865861  0.42981476     1.51470
O547        O  0.12635911  0.13363324  0.44276628    -1.42610
C548        C  0.06100438  0.10975109  0.41300288     1.08940
C549        C  0.18814536  0.13944434  0.40934822     1.09030
C550        C  0.14341609  0.05510976  0.41580595     1.08960
C551        C  0.13308190  0.19619528  0.40938709     1.08940
O552        O  0.65402301  0.06211930  0.31342766    -0.80680
O553        O  0.63209127  0.17084266  0.27620443    -0.80700
O554        O  0.56382997  0.10982091  0.30966747    -0.80710
O555        O  0.68912820  0.14589769  0.31047936    -0.80650
O556        O  0.58901532  0.13275749  0.27756718    -0.80780
O557        O  0.66086033  0.11480597  0.28796294    -0.80700
O558        O  0.65818053  0.19536874  0.30673912    -0.80680
O559        O  0.61188509  0.07954960  0.30117609    -0.80720
C560        C  0.63206670  0.06091772  0.29741613     1.09010
C561        C  0.64937476  0.19112010  0.28092793     1.08890
C562        C  0.56632130  0.11939965  0.28379695     1.09030
C563        C  0.68397415  0.12896854  0.28899288     1.08910
O564        O  0.68127563  0.10304578  0.34458970    -0.80680
O565        O  0.56654333  0.16031397  0.33094070    -0.80760
O566        O  0.58267209  0.07112199  0.35168916    -0.80690
O567        O  0.63645425  0.18901633  0.36479102    -0.80670
O568        O  0.60831405  0.20046592  0.32764193    -0.80730
O569        O  0.62763845  0.08071964  0.36243389    -0.80690
O570        O  0.67297636  0.14066817  0.37170698    -0.80650
O571        O  0.57908475  0.12997019  0.36620753    -0.80720
Co572      Co  0.64357136  0.10027367  0.32442104     1.51530
Co573      Co  0.60064185  0.16444701  0.30407918     1.51690
Co574      Co  0.59856588  0.10598482  0.33603465     1.51570
Co575      Co  0.66144704  0.16554365  0.33863103     1.51470
O576        O  0.62602369  0.13948169  0.32843936    -1.42610
C577        C  0.68964880  0.12050997  0.36416983     1.08940
C578        C  0.56176684  0.14840453  0.35575676     1.09030
C579        C  0.60569303  0.06348372  0.36413296     1.08960
C580        C  0.61951232  0.20655546  0.35239405     1.08940
O581        O  0.11407298  0.78100631  0.09991023    -0.80680
O582        O  0.12569385  0.77218250  0.17167286    -0.80700
O583        O  0.19387790  0.80457542  0.11186798    -0.80710
O584        O  0.07387330  0.79043606  0.14500560    -0.80650
O585        O  0.16885488  0.77317776  0.13586450    -0.80780
O586        O  0.06018965  0.80398622  0.10107253    -0.80700
O587        O  0.09859864  0.79955558  0.19751590    -0.80680
O588        O  0.14757646  0.80409206  0.07485465    -0.80720
C589        C  0.13113009  0.78224493  0.07839757     1.09010
C590        C  0.11108400  0.77568490  0.19422969     1.08890
C591        C  0.19121670  0.77939058  0.12207604     1.09030
C592        C  0.05743911  0.78709301  0.12251688     1.08910
O593        O  0.07378266  0.85239236  0.13053944    -0.80680
O594        O  0.19157592  0.82542013  0.16374058    -0.80760
O595        O  0.13578054  0.86417106  0.09214804    -0.80690
O596        O  0.11566076  0.85676564  0.18597836    -0.80670
O597        O  0.14667767  0.82491092  0.20245081    -0.80730
O598        O  0.10195900  0.83604716  0.07709334    -0.80690
O599        O  0.06028161  0.83886594  0.17513714    -0.80650
O600        O  0.17950219  0.86025487  0.13318021    -0.80720
Co601      Co  0.09639707  0.81617962  0.11582080     1.51530
Co602      Co  0.15676253  0.79972052  0.16694681     1.51690
Co603      Co  0.16183871  0.83326744  0.10510023     1.51570
Co604      Co  0.09660241  0.82599450  0.16238442     1.51470
O605        O  0.13323647  0.82163279  0.13814226    -1.42610
C606        C  0.05526422  0.85287431  0.15189141     1.08940
C607        C  0.19697067  0.84953047  0.15132812     1.09030
C608        C  0.11860612  0.85701740  0.07218144     1.08960
C609        C  0.13225849  0.84811548  0.20626137     1.08940
O610        O  0.06851312  0.61485754  0.29926310    -0.80680
O611        O  0.18666961  0.65979311  0.30538069    -0.80700
O612        O  0.10751428  0.66264218  0.27729927    -0.80710
O613        O  0.12425584  0.59145745  0.27785438    -0.80650
O614        O  0.13862544  0.69116085  0.30013285    -0.80780
O615        O  0.09801515  0.57021073  0.31112392    -0.80700
O616        O  0.16481263  0.63181980  0.27427244    -0.80680
O617        O  0.05424939  0.65983493  0.30212612    -0.80720
C618        C  0.05083894  0.63474543  0.29203749     1.09010
C619        C  0.18485219  0.64886158  0.27997414     1.08890
C620        C  0.12307771  0.68503959  0.27788950     1.09030
C621        C  0.10680236  0.57184801  0.28484207     1.08910
O622        O  0.11779788  0.58946283  0.36685976    -0.80680
O623        O  0.12523754  0.68040669  0.36264981    -0.80760
O624        O  0.07309738  0.63992135  0.35468064    -0.80690
O625        O  0.18862968  0.61281187  0.33106276    -0.80670
O626        O  0.17108451  0.64351616  0.36402356    -0.80730
O627        O  0.05984680  0.59424159  0.35313249    -0.80690
O628        O  0.14733910  0.57197891  0.33296403    -0.80650
O629        O  0.09326149  0.68951098  0.33011004    -0.80720
Co630      Co  0.09503350  0.60643292  0.33516622     1.51530
Co631      Co  0.15357529  0.66668856  0.33335691     1.51690
Co632      Co  0.09149168  0.64978930  0.31473863     1.51570
Co633      Co  0.15483584  0.60346351  0.30441622     1.51470
O634        O  0.12877687  0.63166826  0.32326068    -1.42610
C635        C  0.13522478  0.57034084  0.35795877     1.08940
C636        C  0.10726435  0.69750463  0.35210153     1.09030
C637        C  0.05368452  0.62054506  0.35875589     1.08960
C638        C  0.19026436  0.62617791  0.35569445     1.08940
O639        O  0.79121365  0.15425835  0.07239440    -0.80680
O640        O  0.79222465  0.10529919  0.19724262    -0.80700
O641        O  0.77566202  0.07067105  0.09975252    -0.80710
O642        O  0.76225655  0.17750634  0.13933516    -0.80650
O643        O  0.77628679  0.08093701  0.14732855    -0.80780
O644        O  0.79368546  0.19852024  0.11051211    -0.80700
O645        O  0.76206843  0.13493081  0.17794412    -0.80680
O646        O  0.76188944  0.12736265  0.09843210    -0.80720
C647        C  0.76680049  0.14228776  0.07571745     1.09010
C648        C  0.76821067  0.11770297  0.19802412     1.08890
C649        C  0.76560646  0.06702371  0.12534981     1.09030
C650        C  0.76868895  0.19706980  0.12154919     1.08910
O651        O  0.84918823  0.17942687  0.13076092    -0.80680
O652        O  0.82731549  0.06555146  0.16966057    -0.80760
O653        O  0.81479060  0.10644693  0.07416841    -0.80690
O654        O  0.81862609  0.15321610  0.19934953    -0.80670
O655        O  0.84731744  0.12123625  0.17829358    -0.80730
O656        O  0.84827975  0.13523797  0.08961281    -0.80690
O657        O  0.81711622  0.19851692  0.16029765    -0.80650
O658        O  0.82862341  0.07686782  0.12237879    -0.80720
Co659      Co  0.82077520  0.16506707  0.10287636     1.51530
Co660      Co  0.81409325  0.10257347  0.15902036     1.51690
Co661      Co  0.79429858  0.10430347  0.11298362     1.51570
Co662      Co  0.79058831  0.16450351  0.16754458     1.51470
O663        O  0.80684496  0.13873680  0.13598405    -1.42610
C664        C  0.84047838  0.20051891  0.14585104     1.08940
C665        C  0.83431558  0.05927745  0.14347846     1.09030
C666        C  0.83901045  0.11823534  0.07010783     1.08960
C667        C  0.84082971  0.13713294  0.20023763     1.08940
O668        O  0.78223986  0.58386277  0.62250504    -0.80680
O669        O  0.80094589  0.70093834  0.66179802    -0.80700
O670        O  0.77348253  0.62544304  0.67109527    -0.80710
O671        O  0.76762878  0.63626383  0.59717507    -0.80650
O672        O  0.80136074  0.65452080  0.69654136    -0.80780
O673        O  0.79565516  0.61089511  0.57052404    -0.80700
O674        O  0.76999856  0.67580231  0.63754601    -0.80680
O675        O  0.79195830  0.56992942  0.66749582    -0.80720
C676        C  0.77643776  0.56785520  0.64504091     1.09010
C677        C  0.77555806  0.69735513  0.65283255     1.08890
C678        C  0.77748282  0.64210429  0.69270234     1.09030
C679        C  0.77213097  0.62376680  0.57332976     1.08910
O680        O  0.85151979  0.62442492  0.58579815    -0.80680
O681        O  0.85904389  0.64050212  0.67858278    -0.80760
O682        O  0.84138061  0.58135525  0.63867019    -0.80690
O683        O  0.82139373  0.70127938  0.61129940    -0.80670
O684        O  0.85680539  0.68586735  0.63909798    -0.80730
O685        O  0.83026953  0.56882535  0.59305832    -0.80690
O686        O  0.82125280  0.65850334  0.57173279    -0.80650
O687        O  0.82808075  0.60788001  0.69192039    -0.80720
Co688      Co  0.81932074  0.60562189  0.60703081     1.51530
Co689      Co  0.82965138  0.66839457  0.66665063     1.51690
Co690      Co  0.80689168  0.60534770  0.65390894     1.51570
Co691      Co  0.79548548  0.66670781  0.60573929     1.51470
O692        O  0.81629439  0.64148737  0.63289092    -1.42610
C693        C  0.84422865  0.64412957  0.56789460     1.08940
C694        C  0.85022840  0.62266907  0.69739711     1.09030
C695        C  0.84161426  0.56264120  0.61747685     1.08960
C696        C  0.84614897  0.70466726  0.62251092     1.08940
O697        O  0.15051448  0.07191973  0.79492887    -0.80680
O698        O  0.12050808  0.18088314  0.77773461    -0.80700
O699        O  0.05849838  0.11298831  0.80588918    -0.80710
O700        O  0.18088364  0.15757421  0.80251333    -0.80650
O701        O  0.08252131  0.14037575  0.77689870    -0.80780
O702        O  0.15378178  0.12794564  0.77650996    -0.80700
O703        O  0.14615831  0.20491039  0.80854506    -0.80680
O704        O  0.10559030  0.08506492  0.79132295    -0.80720
C705        C  0.12622777  0.06819988  0.78367052     1.09010
C706        C  0.13433400  0.20310523  0.78373360     1.08890
C707        C  0.06089702  0.12505755  0.78124929     1.09030
C708        C  0.17610366  0.14352581  0.77902224     1.08910
O709        O  0.17742193  0.10860590  0.82889560    -0.80680
O710        O  0.05882860  0.16034390  0.83363938    -0.80760
O711        O  0.08092505  0.07163247  0.84235937    -0.80690
O712        O  0.13109105  0.18761944  0.86624027    -0.80670
O713        O  0.09856829  0.20275244  0.83434594    -0.80730
O714        O  0.12704973  0.08196082  0.84816829    -0.80690
O715        O  0.17196350  0.14175896  0.86242224    -0.80650
O716        O  0.07563083  0.12706218  0.86358600    -0.80720
Co717      Co  0.13886105  0.10733917  0.81167012     1.51530
Co718      Co  0.09155422  0.16968167  0.80613893     1.51690
Co719      Co  0.09447619  0.10800947  0.82968414     1.51570
Co720      Co  0.15487153  0.17056793  0.83499395     1.51470
O721        O  0.12008753  0.14369247  0.82424500    -1.42610
C722        C  0.18719441  0.12216822  0.85065123     1.08940
C723        C  0.05645674  0.14529647  0.85690264     1.09030
C724        C  0.10531300  0.06468562  0.85224096     1.08960
C725        C  0.11270147  0.20602137  0.85807408     1.08940
O726        O  0.60398379  0.28680239  0.08197875    -0.80680
O727        O  0.65420395  0.30315232  0.19556587    -0.80700
O728        O  0.65508692  0.27698203  0.11721320    -0.80710
O729        O  0.58201976  0.27422838  0.13826857    -0.80650
O730        O  0.68404625  0.30275463  0.14491474    -0.80780
O731        O  0.55612654  0.30275139  0.11333088    -0.78300
O732        O  0.62352628  0.27312690  0.17624476    -0.80680
O733        O  0.64570594  0.29711053  0.06209892    -0.80720
C734        C  0.62322737  0.28178812  0.06213842     1.09010
C735        C  0.64373315  0.27794251  0.19360441     1.08890
C736        C  0.67885079  0.28004179  0.13003000     1.09030
C737        C  0.55853965  0.27895358  0.12637247     1.08910
O738        O  0.57623240  0.35865693  0.12532432    -0.80680
O739        O  0.66850422  0.36229045  0.13383745    -0.80760
O740        O  0.62309973  0.34832253  0.07960835    -0.80690
O741        O  0.60515749  0.32708213  0.20179743    -0.80670
O742        O  0.63420023  0.36074761  0.18409954    -0.80730
O743        O  0.57826554  0.33762382  0.06871805    -0.80690
O744        O  0.56156893  0.33049048  0.16165263    -0.80650
O745        O  0.67662455  0.33145528  0.09898416    -0.80720
Co746      Co  0.59308058  0.32478009  0.10516496     1.51530
Co747      Co  0.65753411  0.33231909  0.16277224     1.51690
Co748      Co  0.63788007  0.31185702  0.10021470     1.51570
Co749      Co  0.59438778  0.30195419  0.16788709     1.51470
O750        O  0.62114600  0.32059679  0.13940094    -1.42610
C751        C  0.55836593  0.35293839  0.14564800     1.08940
C752        C  0.68509789  0.35289423  0.11407923     1.09030
C753        C  0.60175343  0.34990003  0.06186119     1.08960
C754        C  0.61888009  0.35070175  0.20456880     1.08940
O755        O  0.06173366  0.30963701  0.65867027    -0.80680
O756        O  0.18274158  0.29509980  0.59137278    -0.80700
O757        O  0.08630573  0.29799464  0.57198668    -0.80710
O758        O  0.12612947  0.28610401  0.67356673    -0.80650
O759        O  0.12665800  0.28110604  0.59100386    -0.80780
O760        O  0.10121882  0.31418375  0.70121838    -0.80700
O761        O  0.17206469  0.28431224  0.63738251    -0.80680
O762        O  0.08796860  0.28351028  0.62937452    -0.80720
C763        C  0.06653541  0.28581488  0.64610614     1.09010
C764        C  0.18511003  0.27827864  0.61316120     1.08890
C765        C  0.10584507  0.27918928  0.57211086     1.09030
C766        C  0.11337843  0.29007558  0.69720903     1.08910
O767        O  0.11417566  0.37264946  0.68071935    -0.80680
O768        O  0.14521544  0.33390627  0.56732120    -0.80760
O769        O  0.05979366  0.33383688  0.60947056    -0.80690
O770        O  0.18560850  0.34270417  0.65669190    -0.80670
O771        O  0.17557050  0.35086374  0.61123715    -0.80730
O772        O  0.07131085  0.36800593  0.63982569    -0.80690
O773        O  0.14522759  0.34228901  0.69848184    -0.80650
O774        O  0.10492425  0.35234303  0.58036422    -0.80720
Co775      Co  0.08959330  0.34115028  0.66774005     1.51530
Co776      Co  0.15055911  0.31645563  0.60612629     1.51690
Co777      Co  0.09878394  0.31786121  0.60531567     1.51570
Co778      Co  0.15403513  0.31540886  0.66397538     1.51470
O779        O  0.12218978  0.33316031  0.63657161    -1.42610
C780        C  0.13050810  0.36529424  0.70108801     1.08940
C781        C  0.12484415  0.35048326  0.56197282     1.09030
C782        C  0.05288522  0.35626856  0.62343470     1.08960
C783        C  0.19107172  0.35543006  0.63313143     1.08940
O784        O  0.13502076  0.48229466  0.10106884    -0.80680
O785        O  0.07971379  0.46390802  0.19739917    -0.80700
O786        O  0.06302736  0.45560245  0.10843824    -0.80710
O787        O  0.16923691  0.48512361  0.14226326    -0.80650
O788        O  0.08588586  0.48068686  0.14091997    -0.80780
O789        O  0.19101447  0.46580101  0.10367976    -0.80700
O790        O  0.12114526  0.48385293  0.18314279    -0.80680
O791        O  0.10825587  0.45773075  0.07131453    -0.80720
C792        C  0.12074304  0.48126974  0.07784975     1.09010
C793        C  0.09812608  0.48399319  0.19926118     1.08890
C794        C  0.06550422  0.47859545  0.12306990     1.09030
C795        C  0.19083428  0.48417536  0.12440730     1.08910
O796        O  0.17862293  0.41151397  0.12065485    -0.80680
O797        O  0.05763994  0.42684993  0.15526433    -0.80760
O798        O  0.12066102  0.39747407  0.08449572    -0.80690
O799        O  0.14173135  0.42793385  0.20055062    -0.80670
O800        O  0.10074686  0.41029970  0.18840636    -0.80730
O801        O  0.15358281  0.42907050  0.07296976    -0.80690
O802        O  0.18542803  0.42896306  0.16364746    -0.80650
O803        O  0.07241823  0.39638410  0.12169399    -0.80720
Co804      Co  0.15595487  0.44671566  0.11298395     1.51530
Co805      Co  0.09552744  0.44540413  0.16419181     1.51690
Co806      Co  0.09359203  0.42677394  0.09918135     1.51570
Co807      Co  0.15029004  0.45381578  0.16760383     1.51470
O808        O  0.12233911  0.43225948  0.13419126    -1.42610
C809        C  0.19340317  0.41225312  0.14342120     1.08940
C810        C  0.05303274  0.40467535  0.13952002     1.09030
C811        C  0.13968863  0.40624057  0.06686242     1.08960
C812        C  0.12176800  0.41051498  0.20528897     1.08940
O813        O  0.43633371  0.36028695  0.21392763    -0.80680
O814        O  0.31487033  0.40523482  0.21317281    -0.80700
O815        O  0.37453299  0.42812261  0.24351560    -0.80710
O816        O  0.34313529  0.31839925  0.21224063    -0.80650
O817        O  0.34936207  0.45337949  0.21371726    -0.80780
O818        O  0.38654877  0.33260515  0.22393979    -0.80700
O819        O  0.34061818  0.37217797  0.23576412    -0.80680
O820        O  0.41163285  0.38660049  0.24302372    -0.80720
C821        C  0.43406106  0.37274185  0.23843488     1.09010
C822        C  0.31877520  0.38801588  0.23448805     1.08890
C823        C  0.36018287  0.45027255  0.23888650     1.09030
C824        C  0.36557326  0.31455832  0.22696574     1.08910
O825        O  0.41514899  0.32133391  0.17418441    -0.80680
O826        O  0.36893041  0.44116576  0.15560872    -0.80760
O827        O  0.43900045  0.40921824  0.18933455    -0.80690
O828        O  0.31777384  0.35941174  0.18040605    -0.80670
O829        O  0.32954849  0.39494528  0.15199915    -0.80730
O830        O  0.42280847  0.37784630  0.15682530    -0.80690
O831        O  0.37046111  0.33181074  0.16278697    -0.80650
O832        O  0.39950525  0.45363983  0.19034928    -0.80720
Co833      Co  0.40140303  0.35719611  0.18798210     1.51530
Co834      Co  0.34305255  0.42134228  0.18351163     1.51690
Co835      Co  0.40462019  0.41799450  0.21558557     1.51570
Co836      Co  0.35612595  0.35506576  0.19971739     1.51470
O837        O  0.37659134  0.39318366  0.19371302    -1.42610
C838        C  0.39162006  0.31358245  0.16279144     1.08940
C839        C  0.38651786  0.45923570  0.16640221     1.09030
C840        C  0.44305959  0.39373692  0.16637425     1.08960
C841        C  0.31099236  0.37675321  0.16027912     1.08940
O842        O  0.67654625  0.63152223  0.47822274    -0.80680
O843        O  0.57572506  0.65597364  0.47156399    -0.80700
O844        O  0.64061663  0.67665857  0.48111449    -0.80710
O845        O  0.60870404  0.57028100  0.45477079    -0.80650
O846        O  0.60643373  0.69894382  0.45750032    -0.80780
O847        O  0.65346252  0.58159419  0.46772861    -0.80700
O848        O  0.56759108  0.61009711  0.46566416    -0.80680
O849        O  0.69609191  0.67148309  0.46122674    -0.80720
C850        C  0.69578483  0.65123561  0.48003825     1.09010
C851        C  0.56336299  0.63326409  0.47946290     1.08890
C852        C  0.62270607  0.69716859  0.47947711     1.09030
C853        C  0.63151936  0.56576436  0.46950968     1.08910
O854        O  0.65451316  0.58271915  0.40899014    -0.80680
O855        O  0.61495910  0.67990129  0.39889896    -0.80760
O856        O  0.68398301  0.64069979  0.41214422    -0.80690
O857        O  0.57370100  0.63459980  0.40636507    -0.80670
O858        O  0.55829971  0.67691933  0.42074027    -0.80730
O859        O  0.70094677  0.60194330  0.43408983    -0.80690
O860        O  0.61213444  0.59288981  0.39471633    -0.80650
O861        O  0.65356328  0.69296982  0.42290510    -0.80720
Co862      Co  0.66197239  0.61229834  0.44067653     1.51530
Co863      Co  0.59568171  0.66435014  0.43438919     1.51690
Co864      Co  0.65970095  0.65743590  0.44659059     1.51570
Co865      Co  0.59237011  0.60325165  0.43078186     1.51470
O866        O  0.62384364  0.63301658  0.44232323    -1.42610
C867        C  0.63179632  0.57490228  0.39655617     1.08940
C868        C  0.63467185  0.69821532  0.40380961     1.09030
C869        C  0.70454152  0.62220189  0.41556604     1.08960
C870        C  0.55247199  0.65129333  0.41187718     1.08940
O871        O  0.53784871  0.32118864  0.36342454    -0.80680
O872        O  0.52624588  0.43599056  0.40896707    -0.80700
O873        O  0.51417380  0.38146694  0.43513851    -0.80710
O874        O  0.54248911  0.40688652  0.32368213    -0.80650
O875        O  0.54402301  0.41003320  0.45633178    -0.80780
O876        O  0.52565374  0.36701236  0.33978218    -0.80700
O877        O  0.53979708  0.44672208  0.36514636    -0.80680
O878        O  0.51000586  0.33939825  0.39717664    -0.80720
C879        C  0.51370269  0.32176418  0.37657978     1.09010
C880        C  0.52264230  0.45021203  0.38611773     1.08890
C881        C  0.52098148  0.39551237  0.45736369     1.09030
C882        C  0.52452920  0.38691055  0.32192609     1.08910
O883        O  0.57806736  0.34803841  0.32376993    -0.80680
O884        O  0.59771964  0.39556660  0.42826424    -0.80760
O885        O  0.56723404  0.31994442  0.41020878    -0.80690
O886        O  0.59745428  0.43510994  0.38522547    -0.80670
O887        O  0.57939031  0.45221776  0.42680538    -0.80730
O888        O  0.59516304  0.34323914  0.38031626    -0.80690
O889        O  0.59851533  0.38808137  0.34142814    -0.80650
O890        O  0.57173488  0.36328462  0.45112663    -0.80720
Co891      Co  0.56116909  0.35815961  0.35979450     1.51530
Co892      Co  0.56255375  0.41593857  0.41630803     1.51690
Co893      Co  0.54137335  0.35302770  0.42163687     1.51570
Co894      Co  0.56792636  0.41541347  0.35793079     1.51470
O895        O  0.55036312  0.38402315  0.39082767    -1.42610
C896        C  0.59575163  0.36883187  0.32100842     1.08940
C897        C  0.59412554  0.37885328  0.44983852     1.09030
C898        C  0.58957367  0.32050567  0.39438567     1.08960
C899        C  0.59429953  0.45622971  0.40368824     1.08940
O900        O  0.26774476  0.07819126  0.60538519    -0.80680
O901        O  0.26487254  0.16742527  0.64129004    -0.80700
O902        O  0.27031385  0.10899543  0.68227289    -0.80710
O903        O  0.29367141  0.16170409  0.57962471    -0.80650
O904        O  0.28737254  0.15227980  0.69080833    -0.80780
O905        O  0.28697864  0.11613232  0.56612071    -0.80700
O906        O  0.28503958  0.17933299  0.60141000    -0.80680
O907        O  0.28178051  0.06277996  0.64885592    -0.80720
C908        C  0.26364286  0.06387907  0.62855232     1.09010
C909        C  0.26346522  0.18205988  0.61850438     1.08890
C910        C  0.26870501  0.13293763  0.69539748     1.09030
C911        C  0.28283631  0.14230126  0.56223427     1.08910
O912        O  0.34469429  0.10300650  0.57912369    -0.80680
O913        O  0.34466743  0.15248370  0.66774805    -0.80760
O914        O  0.34187226  0.07239828  0.65335798    -0.80690
O915        O  0.33468455  0.19767517  0.61729148    -0.80670
O916        O  0.31143383  0.19962648  0.65984570    -0.80730
O917        O  0.32389982  0.05819896  0.61171415    -0.80690
O918        O  0.34385863  0.15058289  0.58049319    -0.80650
O919        O  0.33024439  0.11556455  0.69352016    -0.80720
Co920      Co  0.30601332  0.09181731  0.59372964     1.51530
Co921      Co  0.30514391  0.15837915  0.65125260     1.51690
Co922      Co  0.30634495  0.09228925  0.66662400     1.51570
Co923      Co  0.32048131  0.15759319  0.61650055     1.51470
O924        O  0.30413085  0.11874020  0.63034040    -1.42610
C925        C  0.35227058  0.12718965  0.56883462     1.08940
C926        C  0.34642065  0.13708966  0.69065052     1.09030
C927        C  0.33964615  0.05361413  0.63333449     1.08960
C928        C  0.32667989  0.21199331  0.64008113     1.08940
O929        O  0.29458313  0.66342378  0.06908518    -0.80680
O930        O  0.27312863  0.63164871  0.17201855    -0.80700
O931        O  0.29467430  0.57570798  0.12409057    -0.80710
O932        O  0.30294708  0.70128063  0.15275564    -0.80650
O933        O  0.28558472  0.57457146  0.17296096    -0.80780
O934        O  0.27869571  0.67137315  0.12576204    -0.80700
O935        O  0.29762079  0.66275130  0.19858718    -0.80680
O936        O  0.28079379  0.62458411  0.09310379    -0.80720
C937        C  0.27742353  0.64226416  0.07161110     1.09010
C938        C  0.27471203  0.64873002  0.19366054     1.08890
C939        C  0.28177294  0.56483022  0.14698170     1.09030
C940        C  0.28071323  0.69546241  0.13818134     1.08910
O941        O  0.33455118  0.69217762  0.10623328    -0.80680
O942        O  0.34057063  0.58048572  0.16190984    -0.80760
O943        O  0.32494351  0.59519657  0.06978514    -0.80690
O944        O  0.35644115  0.64729706  0.19226850    -0.80670
O945        O  0.32360069  0.61467121  0.20464088    -0.80730
O946        O  0.34497772  0.63730299  0.08088938    -0.80690
O947        O  0.36133338  0.68497905  0.14526426    -0.80650
O948        O  0.35613876  0.58982100  0.11809569    -0.80720
Co949      Co  0.31249624  0.65445619  0.10573233     1.51530
Co950      Co  0.30717024  0.60742515  0.16431369     1.51690
Co951      Co  0.31986902  0.61000579  0.10862187     1.51570
Co952      Co  0.32984692  0.67216957  0.17066912     1.51470
O953        O  0.32493286  0.63777681  0.14320206    -1.42610
C954        C  0.35464068  0.70014581  0.12340702     1.08940
C955        C  0.35750608  0.57502752  0.14106660     1.09030
C956        C  0.34146941  0.61613089  0.06261712     1.08960
C957        C  0.34626838  0.62929874  0.21036218     1.08940
O958        O  0.44585096  0.10649376  0.06296529    -0.80680
O959        O  0.46647664  0.14022336  0.18320055    -0.80700
O960        O  0.47488666  0.17239113  0.12764829    -0.80710
O961        O  0.47426183  0.09655179  0.13863159    -0.80650
O962        O  0.44802020  0.19265518  0.15960325    -0.80780
O963        O  0.44784017  0.07011108  0.10921287    -0.80700
O964        O  0.45737381  0.09546423  0.19601024    -0.80680
O965        O  0.47473948  0.13611687  0.08534318    -0.80720
C966        C  0.46984800  0.11932359  0.06452906     1.09010
C967        C  0.47258623  0.11782321  0.19906082     1.08890
C968        C  0.47033197  0.19338414  0.14407466     1.09030
C969        C  0.47176408  0.07534351  0.12136458     1.08910
O970        O  0.38906343  0.08489484  0.12543020    -0.80680
O971        O  0.39287788  0.17270637  0.14775332    -0.80760
O972        O  0.42011412  0.15591928  0.06348600    -0.80690
O973        O  0.40553852  0.12029553  0.18784578    -0.80670
O974        O  0.41645457  0.16441115  0.20256456    -0.80730
O975        O  0.38885772  0.12361418  0.07849765    -0.80690
O976        O  0.42081281  0.07118950  0.15707328    -0.80650
O977        O  0.41738194  0.19352849  0.11169833    -0.80720
Co978      Co  0.41789078  0.09851992  0.09644348     1.51530
Co979      Co  0.42749879  0.15405719  0.16364817     1.51690
Co980      Co  0.44581031  0.16289607  0.09864286     1.51570
Co981      Co  0.44048161  0.10971124  0.16095955     1.51470
O982        O  0.42977984  0.13179839  0.12472462    -1.42610
C983        C  0.39748273  0.06646818  0.14380098     1.08940
C984        C  0.39728542  0.19414930  0.13087554     1.09030
C985        C  0.39814269  0.14024289  0.05858828     1.08960
C986        C  0.40394844  0.14056137  0.20740430     1.08940
O987        O  0.34594298  0.23984561  0.37813555    -0.80680
O988        O  0.40331406  0.23982353  0.38813378    -0.80700
O989        O  0.36389990  0.21520359  0.44964402    -0.80710
O990        O  0.38502748  0.20680896  0.32053553    -0.80650
O991        O  0.40982810  0.23007997  0.44616225    -0.80780
O992        O  0.33932377  0.22251900  0.32213131    -0.80700
O993        O  0.42854526  0.21346808  0.35818275    -0.80680
O994        O  0.32057151  0.21716808  0.41091078    -0.80720
C995        C  0.32557400  0.23970998  0.39648496     1.09010
C996        C  0.42372733  0.23757481  0.36991281     1.08890
C997        C  0.38525136  0.23157159  0.45834421     1.09030
C998        C  0.36387874  0.22206174  0.30990919     1.08910
O999        O  0.34774884  0.16803289  0.32850311    -0.80680
O1000       O  0.40100673  0.17475689  0.44564522    -0.80760
O1001       O  0.32021491  0.15753778  0.39711365    -0.80690
O1002       O  0.42538852  0.15608078  0.38108562    -0.80670
O1003       O  0.43959889  0.19274383  0.40736635    -0.80730
O1004       O  0.30993686  0.19064366  0.36446451    -0.80690
O1005       O  0.38359452  0.14383997  0.34329349    -0.80650
O1006       O  0.36280908  0.14990062  0.43746866    -0.80720
Co1007     Co  0.35025652  0.20318324  0.35563402     1.51530
Co1008     Co  0.39893424  0.20647481  0.41516020     1.51690
Co1009     Co  0.34445178  0.18406996  0.42111811     1.51570
Co1010     Co  0.40333753  0.17941422  0.35320494     1.51470
O1011       O  0.37403010  0.18593417  0.38680532    -1.42610
C1012       C  0.36472244  0.14735594  0.32459679     1.08940
C1013       C  0.38436943  0.15450996  0.45285871     1.09030
C1014       C  0.30250544  0.16875427  0.37944504     1.08960
C1015       C  0.44541095  0.16939857  0.39382751     1.08940
O1016       O  0.56418540  0.80095627  0.66779986    -0.80680
O1017       O  0.67141374  0.78021481  0.63250691    -0.80700
O1018       O  0.60229984  0.80651094  0.57081587    -0.80710
O1019       O  0.64798002  0.80724032  0.69619563    -0.80650
O1020       O  0.63067530  0.77871192  0.59406201    -0.80780
O1021       O  0.61864037  0.78149088  0.66905582    -0.80700
O1022       O  0.69361638  0.81064067  0.66089298    -0.80680
O1023       O  0.57792025  0.79249667  0.62233873    -0.80720
C1024       C  0.56167821  0.78645779  0.64446576     1.09010
C1025       C  0.69095854  0.78555437  0.65046288     1.08890
C1026       C  0.61537596  0.78278714  0.57212970     1.09030
C1027       C  0.63470717  0.78362242  0.69109852     1.08910
O1028       O  0.60220081  0.83568989  0.69407393    -0.80680
O1029       O  0.64981392  0.83478227  0.56945715    -0.80760
O1030       O  0.56144146  0.84207495  0.59659430    -0.80690
O1031       O  0.67887005  0.86710062  0.64126929    -0.80670
O1032       O  0.69362886  0.83380865  0.60981857    -0.80730
O1033       O  0.57655839  0.85193993  0.64143096    -0.80690
O1034       O  0.63355275  0.86769369  0.68082495    -0.80650
O1035       O  0.61606243  0.86342634  0.58756056    -0.80720
Co1036     Co  0.59942534  0.81622884  0.65451306     1.51530
Co1037     Co  0.66000491  0.80763142  0.60286337     1.51690
Co1038     Co  0.59871435  0.83021340  0.60808772     1.51570
Co1039     Co  0.66127720  0.83831309  0.66742927     1.51470
O1040       O  0.63500115  0.82619390  0.63279150    -1.42610
C1041       C  0.61580183  0.85872192  0.69952017     1.08940
C1042       C  0.63372467  0.85699537  0.56727841     1.09030
C1043       C  0.55626652  0.85170052  0.62222793     1.08960
C1044       C  0.69792761  0.85697167  0.62437015     1.08940
O1045       O  0.21292186  0.31864957  0.41919494    -0.80680
O1046       O  0.23450499  0.42494619  0.38459956    -0.80700
O1047       O  0.21095945  0.35518636  0.32179032    -0.80710
O1048       O  0.20305050  0.40308661  0.44673608    -0.80650
O1049       O  0.23756641  0.38313888  0.34696041    -0.80780
O1050       O  0.23088049  0.37445201  0.42078929    -0.80700
O1051       O  0.20332708  0.44935130  0.40952373    -0.80680
O1052       O  0.22402019  0.33231032  0.37435484    -0.80720
C1053       C  0.22929656  0.31686223  0.39710229     1.09010
C1054       C  0.22754945  0.44784666  0.39711672     1.08890
C1055       C  0.23407614  0.36906021  0.32399381     1.09030
C1056       C  0.22665276  0.38965079  0.44336362     1.08910
O1057       O  0.17520210  0.35718061  0.44195481    -0.80680
O1058       O  0.18327012  0.40183249  0.31921552    -0.80760
O1059       O  0.17619469  0.31361784  0.34629544    -0.80690
O1060       O  0.14841902  0.43444414  0.38746942    -0.80670
O1061       O  0.18326458  0.44742062  0.35730057    -0.80730
O1062       O  0.16338059  0.32840132  0.39049989    -0.80690
O1063       O  0.14488296  0.38885881  0.42606106    -0.80650
O1064       O  0.15395358  0.36838332  0.33748268    -0.80720
Co1065     Co  0.19769949  0.35347976  0.40446531     1.51530
Co1066     Co  0.20916962  0.41311097  0.35318549     1.51690
Co1067     Co  0.18666752  0.35158002  0.35851050     1.51570
Co1068     Co  0.17508773  0.41667979  0.41546328     1.51470
O1069       O  0.18869909  0.38898395  0.38219686    -1.42610
C1070       C  0.15207076  0.37101297  0.44522650     1.08940
C1071       C  0.16071533  0.38605124  0.31733008     1.09030
C1072       C  0.16297766  0.30881719  0.37017599     1.08960
C1073       C  0.15968313  0.45275959  0.37040691     1.08940
O1074       O  0.57624097  0.61781028  0.78964615    -0.80680
O1075       O  0.69228750  0.66206429  0.80584087    -0.80700
O1076       O  0.61876936  0.66780744  0.77327268    -0.80710
O1077       O  0.63292230  0.59148122  0.77568697    -0.80650
O1078       O  0.64601448  0.69615135  0.80038419    -0.80780
O1079       O  0.60366097  0.57071240  0.80601526    -0.80700
O1080       O  0.67163728  0.63261092  0.77517013    -0.80680
O1081       O  0.56301575  0.66365116  0.79000154    -0.80720
C1082       C  0.56054772  0.63840119  0.77975644     1.09010
C1083       C  0.69113075  0.65024903  0.78080065     1.08890
C1084       C  0.63365354  0.69063578  0.77616877     1.09030
C1085       C  0.61702968  0.57051370  0.78182503     1.08910
O1086       O  0.61721093  0.58977743  0.86260564    -0.80680
O1087       O  0.62918759  0.68406777  0.86081693    -0.80760
O1088       O  0.57222005  0.64298997  0.84477965    -0.80690
O1089       O  0.69368876  0.61482406  0.83259184    -0.80670
O1090       O  0.67549896  0.64630729  0.86415290    -0.80730
O1091       O  0.56137938  0.59648369  0.84227844    -0.80690
O1092       O  0.65181631  0.57274057  0.83389662    -0.80650
O1093       O  0.59841928  0.69239987  0.82628670    -0.80720
Co1094     Co  0.59831445  0.60814701  0.82838103     1.51530
Co1095     Co  0.65855084  0.66950416  0.83288151     1.51690
Co1096     Co  0.59774813  0.65316599  0.80818158     1.51570
Co1097     Co  0.66090223  0.60459183  0.80495359     1.51470
O1098       O  0.63348357  0.63382804  0.82145500    -1.42610
C1099       C  0.63575616  0.57040713  0.85653383     1.08940
C1100       C  0.61048671  0.70030319  0.84977774     1.09030
C1101       C  0.55465257  0.62194343  0.85041108     1.08960
C1102       C  0.69552196  0.62969537  0.85623145     1.08940
O1103       O  0.30845224  0.35708745  0.55367425    -0.80680
O1104       O  0.44403998  0.39988095  0.56981085    -0.80700
O1105       O  0.35647857  0.44380711  0.55588592    -0.80710
O1106       O  0.38593762  0.32044059  0.56747529    -0.80650
O1107       O  0.40105033  0.43187636  0.54433857    -0.80780
O1108       O  0.36404475  0.34865396  0.53742250    -0.80700
O1109       O  0.43103104  0.35532895  0.55952950    -0.80680
O1110       O  0.33127472  0.39545260  0.53845059    -0.80720
C1111       C  0.31071550  0.37718541  0.53503074     1.09010
C1112       C  0.44686906  0.37705461  0.55534330     1.08890
C1113       C  0.37859829  0.44635979  0.53954903     1.09030
C1114       C  0.37632298  0.32501105  0.54228642     1.08910
O1115       O  0.34298006  0.33241357  0.59633621    -0.80680
O1116       O  0.38718139  0.45221284  0.59997031    -0.80760
O1117       O  0.30497413  0.42267102  0.58385271    -0.80690
O1118       O  0.43353258  0.36684140  0.62019206    -0.80670
O1119       O  0.41993016  0.41155787  0.62545144    -0.80730
O1120       O  0.31960871  0.38326633  0.60540211    -0.80690
O1121       O  0.37902068  0.34099156  0.62620626    -0.80650
O1122       O  0.35134512  0.42890695  0.61846320    -0.80720
Co1123     Co  0.34430568  0.36786921  0.57152072     1.51530
Co1124     Co  0.41052637  0.42078158  0.58462410     1.51690
Co1125     Co  0.34427381  0.40949828  0.57965305     1.51570
Co1126     Co  0.40495291  0.34931225  0.59324405     1.51470
O1127       O  0.38190273  0.38664463  0.58318523    -1.42610
C1128       C  0.35659864  0.32704681  0.61975085     1.08940
C1129       C  0.36621582  0.45148823  0.61694557     1.09030
C1130       C  0.29973680  0.40195524  0.60141197     1.08960
C1131       C  0.43773775  0.39183889  0.63020417     1.08940
O1132       O  0.47068935  0.68053076  0.62036955    -0.80680
O1133       O  0.44758873  0.56598461  0.66428898    -0.80700
O1134       O  0.47792323  0.64259828  0.66679051    -0.80710
O1135       O  0.48092174  0.62128779  0.59240406    -0.80650
O1136       O  0.45258151  0.61439662  0.69583105    -0.80780
O1137       O  0.45539037  0.65299602  0.57049412    -0.80700
O1138       O  0.47758492  0.58398158  0.63271884    -0.80680
O1139       O  0.45784332  0.69784488  0.66309561    -0.80720
C1140       C  0.47481367  0.69844590  0.64173165     1.09010
C1141       C  0.47264552  0.56755879  0.65364860     1.08890
C1142       C  0.47592399  0.62738911  0.68966061     1.09030
C1143       C  0.47777384  0.63795589  0.57127813     1.08910
O1144       O  0.39819838  0.64277577  0.58862375    -0.80680
O1145       O  0.39338295  0.63029630  0.68105903    -0.80760
O1146       O  0.40828658  0.68489113  0.63697164    -0.80690
O1147       O  0.42112144  0.56332476  0.61409078    -0.80670
O1148       O  0.39085570  0.58305364  0.64568242    -0.80730
O1149       O  0.42257858  0.69664039  0.59230483    -0.80690
O1150       O  0.42357648  0.60613753  0.57112299    -0.80650
O1151       O  0.42592009  0.66187423  0.69039302    -0.80720
Co1152     Co  0.43245366  0.65986549  0.60719560     1.51530
Co1153     Co  0.42114871  0.60031308  0.66922037     1.51690
Co1154     Co  0.44356089  0.66169451  0.65105336     1.51570
Co1155     Co  0.44989020  0.59521023  0.60406782     1.51470
O1156       O  0.43412668  0.62383852  0.63282533    -1.42610
C1157       C  0.40299601  0.62401873  0.56889790     1.08940
C1158       C  0.40405426  0.64823701  0.69852967     1.09030
C1159       C  0.40877139  0.70299362  0.61541966     1.08960
C1160       C  0.39777353  0.56260607  0.62892520     1.08940
O1161       O  0.68822222  0.46251841  0.65654585    -0.80680
O1162       O  0.57862033  0.48740493  0.63284632    -0.80700
O1163       O  0.66380667  0.47094668  0.56816385    -0.80710
O1164       O  0.61763060  0.48374516  0.66995702    -0.80650
O1165       O  0.62475654  0.48967009  0.58811188    -0.80780
O1166       O  0.64665527  0.46025760  0.69779121    -0.80700
O1167       O  0.56303058  0.46418057  0.67252006    -0.80680
O1168       O  0.66245461  0.48661032  0.62565920    -0.80720
C1169       C  0.68356455  0.48544415  0.64252032     1.09010
C1170       C  0.56114269  0.48514888  0.65515343     1.08890
C1171       C  0.64286718  0.48838864  0.56664926     1.09030
C1172       C  0.63158941  0.48240066  0.69336581     1.08910
O1173       O  0.63674035  0.40022355  0.68517507    -0.80680
O1174       O  0.60628647  0.43401437  0.56835625    -0.80760
O1175       O  0.69218859  0.43479684  0.60872348    -0.80690
O1176       O  0.57486073  0.41247565  0.64980394    -0.80670
O1177       O  0.56510047  0.43236198  0.60880978    -0.80730
O1178       O  0.67981189  0.40293672  0.64178329    -0.80690
O1179       O  0.60218190  0.42980238  0.69632883    -0.80650
O1180       O  0.64717336  0.41579439  0.57933250    -0.80720
Co1181     Co  0.66036689  0.43138735  0.66760230     1.51530
Co1182     Co  0.59836769  0.45808615  0.60405509     1.51690
Co1183     Co  0.65282934  0.45111498  0.60295381     1.51570
Co1184     Co  0.59687100  0.44794758  0.65780461     1.51470
O1185       O  0.62918765  0.43610842  0.63452970    -1.42610
C1186       C  0.61812067  0.40908200  0.70331983     1.08940
C1187       C  0.62630640  0.41688231  0.56236708     1.09030
C1188       C  0.69845238  0.41299864  0.62422631     1.08960
C1189       C  0.55761739  0.41623941  0.62937471     1.08940
O1190       O  0.32164208  0.53244778  0.38941366    -0.80680
O1191       O  0.43258404  0.55263434  0.35493473    -0.80700
O1192       O  0.34694586  0.56313326  0.32688280    -0.80710
O1193       O  0.39172955  0.55633982  0.45072097    -0.80650
O1194       O  0.37668538  0.53484848  0.35102930    -0.80780
O1195       O  0.36235838  0.52799103  0.42838811    -0.80700
O1196       O  0.41885193  0.54350364  0.40026673    -0.80680
O1197       O  0.30117501  0.56613986  0.36353655    -0.80720
C1198       C  0.30119381  0.54094515  0.37422800     1.09010
C1199       C  0.43556709  0.53826759  0.37816880     1.08890
C1200       C  0.36000942  0.53906410  0.32955428     1.09030
C1201       C  0.37883143  0.53244014  0.44939761     1.08910
O1202       O  0.34556863  0.58388319  0.45404014    -0.80680
O1203       O  0.39520076  0.58857575  0.33068457    -0.80760
O1204       O  0.32162368  0.61964019  0.38806706    -0.80690
O1205       O  0.43148282  0.59260016  0.42949439    -0.80670
O1206       O  0.42208851  0.60285099  0.38312649    -0.80730
O1207       O  0.30177333  0.58604606  0.41513959    -0.80690
O1208       O  0.37651630  0.61324244  0.43275161    -0.80650
O1209       O  0.36642265  0.61988742  0.34905485    -0.80720
Co1210     Co  0.33436521  0.55802734  0.42028977     1.51530
Co1211     Co  0.39738228  0.56755481  0.36860869     1.51690
Co1212     Co  0.33572223  0.59227917  0.35846682     1.51570
Co1213     Co  0.39619700  0.58039856  0.41431432     1.51470
O1214       O  0.36087947  0.57540865  0.39035320    -1.42610
C1215       C  0.36093645  0.60667989  0.45461702     1.08940
C1216       C  0.38156198  0.61174311  0.32780855     1.09030
C1217       C  0.30042184  0.61050839  0.40262077     1.08960
C1218       C  0.43844773  0.60500044  0.40588693     1.08940
O1219       O  0.57437941  0.14689732  0.97153758    -0.80680
O1220       O  0.67843335  0.10889876  0.97088173    -0.80700
O1221       O  0.60970729  0.10154195  0.98275277    -0.80710
O1222       O  0.64158383  0.18827686  0.95961221    -0.80650
O1223       O  0.63569574  0.07020193  0.96086604    -0.80780
O1224       O  0.59818557  0.17159594  0.97067033    -0.80700
O1225       O  0.68828465  0.15424830  0.95850219    -0.80680
O1226       O  0.55754478  0.10437456  0.95783278    -0.80720
C1227       C  0.55588659  0.12601168  0.97477391     1.09010
C1228       C  0.69080977  0.13285440  0.97565549     1.08890
C1229       C  0.62357066  0.07823830  0.98376569     1.09030
C1230       C  0.61920610  0.18888950  0.97555380     1.08910
O1231       O  0.59992408  0.19421191  0.92061198    -0.80680
O1232       O  0.63900777  0.07970472  0.90060846    -0.80760
O1233       O  0.57117632  0.12358243  0.90448946    -0.80690
O1234       O  0.68472397  0.15031331  0.89509028    -0.80670
O1235       O  0.69102936  0.10648371  0.91094037    -0.80730
O1236       O  0.55531372  0.16368207  0.92280921    -0.80690
O1237       O  0.63731983  0.18297016  0.89578332    -0.80650
O1238       O  0.59790070  0.07439867  0.92404022    -0.80720
Co1239     Co  0.59430662  0.15232421  0.93092092     1.51530
Co1240     Co  0.65850022  0.09500529  0.93522845     1.51690
Co1241     Co  0.59422856  0.11405630  0.94271614     1.51570
Co1242     Co  0.66072253  0.16641618  0.92754891     1.51470
O1243       O  0.63348364  0.13182356  0.93291754    -1.42610
C1244       C  0.61907022  0.20167082  0.90263240     1.08940
C1245       C  0.61679976  0.06501928  0.90603228     1.09030
C1246       C  0.55087783  0.14254512  0.90585755     1.08960
C1247       C  0.69904325  0.12731334  0.89556277     1.08940
O1248       O  0.18302843  0.96262644  0.67538818    -0.80680
O1249       O  0.07924323  0.98612721  0.64203443    -0.80700
O1250       O  0.14730545  0.95419441  0.57880030    -0.80710
O1251       O  0.09873431  0.95405022  0.70318715    -0.80650
O1252       O  0.12269279  0.98505943  0.60370579    -0.80780
O1253       O  0.12859731  0.98030989  0.67663894    -0.80700
O1254       O  0.05396476  0.95432505  0.66601194    -0.80680
O1255       O  0.17243218  0.96331586  0.62810353    -0.80720
C1256       C  0.18689426  0.97268091  0.64990185     1.09010
C1257       C  0.05790186  0.98023008  0.65783014     1.08890
C1258       C  0.13642034  0.97923258  0.58076906     1.09030
C1259       C  0.11298141  0.97721668  0.69902879     1.08910
O1260       O  0.14436958  0.92550104  0.70062173    -0.80680
O1261       O  0.09903993  0.93214704  0.57743445    -0.80760
O1262       O  0.18426361  0.91236695  0.60305643    -0.80690
O1263       O  0.06934545  0.89732589  0.64461427    -0.80670
O1264       O  0.05693586  0.93359862  0.61606180    -0.80730
O1265       O  0.17217303  0.90969295  0.65022419    -0.80690
O1266       O  0.11224700  0.89478946  0.68554914    -0.80650
O1267       O  0.12700366  0.89780168  0.59507642    -0.80720
Co1268     Co  0.14848749  0.94620863  0.66204321     1.51530
Co1269     Co  0.09071775  0.95886419  0.61139619     1.51690
Co1270     Co  0.14846117  0.92830285  0.61513763     1.51570
Co1271     Co  0.08552225  0.92493012  0.67273346     1.51470
O1272       O  0.11357770  0.93709297  0.63996350    -1.42610
C1273       C  0.12996858  0.90260463  0.70470835     1.08940
C1274       C  0.11129034  0.90767163  0.57489771     1.09030
C1275       C  0.19015379  0.90456174  0.62907806     1.08960
C1276       C  0.05369520  0.90767284  0.62482647     1.08940
O1277       O  0.14331243  0.68999289  0.97088849    -0.80680
O1278       O  0.11169917  0.56658022  0.96575842    -0.80700
O1279       O  0.05440078  0.64580701  0.96736655    -0.80710
O1280       O  0.19012057  0.60201573  0.96699358    -0.80650
O1281       O  0.06986040  0.60354850  0.98008962    -0.80780
O1282       O  0.16929906  0.64119728  0.98369535    -0.80700
O1283       O  0.13685486  0.59592485  0.99089175    -0.80680
O1284       O  0.10089654  0.67755632  0.98787581    -0.80720
C1285       C  0.12380022  0.69217183  0.99021265     1.09010
C1286       C  0.12336151  0.57241431  0.98954452     1.08890
C1287       C  0.05475691  0.62552070  0.98514211     1.09030
C1288       C  0.18971641  0.62256535  0.98539267     1.08910
O1289       O  0.18877604  0.67030282  0.93749620    -0.80680
O1290       O  0.05987953  0.61258194  0.91866183    -0.80760
O1291       O  0.10620477  0.69989437  0.93081389    -0.80690
O1292       O  0.15060228  0.57554195  0.92957949    -0.80670
O1293       O  0.11056904  0.58360003  0.90610944    -0.80730
O1294       O  0.14035993  0.67770783  0.90819088    -0.80690
O1295       O  0.17604850  0.62893653  0.91721654    -0.80650
O1296       O  0.06673132  0.65908623  0.91055109    -0.80720
Co1297     Co  0.15158716  0.65623732  0.94480626     1.51530
Co1298     Co  0.09012751  0.59501332  0.94235389     1.51690
Co1299     Co  0.08527374  0.66721896  0.94884468     1.51570
Co1300     Co  0.15307945  0.61313389  0.95298563     1.51470
O1301       O  0.11440159  0.63279195  0.94516829    -1.42610
C1302       C  0.19487892  0.64920919  0.92077308     1.08940
C1303       C  0.05251403  0.63596944  0.90686260     1.09030
C1304       C  0.12649103  0.70069659  0.91279850     1.08960
C1305       C  0.13246181  0.56807868  0.91009228     1.08940
O1306       O  0.96580745  0.57644974  0.14607087    -0.80680
O1307       O  0.95066936  0.69525453  0.11174050    -0.80700
O1308       O  0.97554625  0.61689623  0.10214224    -0.80710
O1309       O  0.98025874  0.62820069  0.17470301    -0.80650
O1310       O  0.95203271  0.64848866  0.07560306    -0.80780
O1311       O  0.95123553  0.60054547  0.19766839    -0.80700
O1312       O  0.98120092  0.67223019  0.13867333    -0.80680
O1313       O  0.95479547  0.56190116  0.10179875    -0.80720
C1314       C  0.97080837  0.55977498  0.12390994     1.09010
C1315       C  0.97544132  0.69335325  0.12267571     1.08890
C1316       C  0.97414058  0.63306864  0.08017277     1.09030
C1317       C  0.97461331  0.61388135  0.19707089     1.08910
O1318       O  0.89580580  0.61572072  0.18127219    -0.80680
O1319       O  0.89198613  0.63636402  0.08946817    -0.80760
O1320       O  0.90440480  0.57477808  0.12854860    -0.80690
O1321       O  0.92764357  0.69353592  0.16311376    -0.80670
O1322       O  0.89428633  0.68218034  0.13036216    -0.80730
O1323       O  0.91642542  0.56136309  0.17325317    -0.80690
O1324       O  0.92536397  0.64812137  0.20058634    -0.80650
O1325       O  0.92192992  0.60301775  0.07611704    -0.80720
Co1326     Co  0.92856637  0.59785300  0.16062564     1.51530
Co1327     Co  0.92216237  0.66319812  0.10404100     1.51690
Co1328     Co  0.94050521  0.59811024  0.11577344     1.51570
Co1329     Co  0.95297903  0.65910035  0.16763501     1.51470
O1330       O  0.93305762  0.63510216  0.13747638    -1.42610
C1331       C  0.90265356  0.63262331  0.20211162     1.08940
C1332       C  0.90048655  0.61862874  0.07023987     1.09030
C1333       C  0.90326316  0.55609253  0.14964683     1.08960
C1334       C  0.90401957  0.69866545  0.15032107     1.08940
O1335       O  0.97031770  0.18562348  0.62422338    -0.80680
O1336       O  0.94882118  0.06837089  0.66230760    -0.80700
O1337       O  0.97732401  0.14431704  0.67022992    -0.80710
O1338       O  0.98483038  0.13154758  0.59787093    -0.80650
O1339       O  0.95062069  0.11495896  0.69694249    -0.80780
O1340       O  0.95885871  0.16028294  0.57276582    -0.80700
O1341       O  0.98150744  0.08920146  0.63543975    -0.80680
O1342       O  0.95850288  0.20028339  0.66830837    -0.80720
C1343       C  0.97497644  0.20215184  0.64646560     1.09010
C1344       C  0.97457207  0.07011972  0.65365047     1.08890
C1345       C  0.97423242  0.12796739  0.69221812     1.09030
C1346       C  0.98240119  0.14723037  0.57587885     1.08910
O1347       O  0.90116885  0.14741978  0.58687713    -0.80680
O1348       O  0.89234956  0.13023942  0.68153854    -0.80760
O1349       O  0.90860536  0.18780933  0.64064874    -0.80690
O1350       O  0.92810142  0.06929360  0.61016481    -0.80670
O1351       O  0.89381503  0.08425950  0.64027251    -0.80730
O1352       O  0.92170904  0.20246918  0.59646614    -0.80690
O1353       O  0.93019542  0.11322646  0.57019832    -0.80650
O1354       O  0.92448285  0.16222055  0.69274793    -0.80720
Co1355     Co  0.93334383  0.16486861  0.60866399     1.51530
Co1356     Co  0.92134067  0.10170058  0.66768162     1.51690
Co1357     Co  0.94394516  0.16450176  0.65425361     1.51570
Co1358     Co  0.95530483  0.10236165  0.60480099     1.51470
O1359       O  0.93529620  0.12802773  0.63340489    -1.42610
C1360       C  0.90818031  0.12930427  0.56714062     1.08940
C1361       C  0.90237565  0.14819673  0.69978762     1.09030
C1362       C  0.90700286  0.20647684  0.61970060     1.08960
C1363       C  0.90455733  0.06499318  0.62379141     1.08940
O1364       O  0.55465711  0.96431912  0.09870253    -0.80680
O1365       O  0.68015652  0.96307433  0.15910801    -0.80700
O1366       O  0.60415037  0.98133064  0.18536052    -0.80710
O1367       O  0.65469363  0.97283412  0.07162267    -0.80650
O1368       O  0.64019154  0.95560324  0.20212338    -0.80780
O1369       O  0.60939771  0.97904625  0.08572310    -0.80700
O1370       O  0.65261981  0.98712389  0.12889616    -0.80680
O1371       O  0.57787317  0.98663430  0.13386175    -0.80720
C1372       C  0.55758701  0.98656033  0.11475760     1.09010
C1373       C  0.67455680  0.98586695  0.14474100     1.08890
C1374       C  0.62384218  0.97742002  0.20367606     1.09030
C1375       C  0.63132872  0.98653135  0.06967389     1.08910
O1376       O  0.59070257  0.91919150  0.08301611    -0.80680
O1377       O  0.62982733  0.89740320  0.18129379    -0.80760
O1378       O  0.54982718  0.95323031  0.17246343    -0.80690
O1379       O  0.68399294  0.93713376  0.10949785    -0.80670
O1380       O  0.67101613  0.90371182  0.14016594    -0.80730
O1381       O  0.56304778  0.92164697  0.13801807    -0.80690
O1382       O  0.63751131  0.91821481  0.08041205    -0.80650
O1383       O  0.59262165  0.92314899  0.19296585    -0.80720
Co1384     Co  0.58926113  0.94856842  0.11422503     1.51530
Co1385     Co  0.65368985  0.92993685  0.16908495     1.51690
Co1386     Co  0.58853968  0.95169358  0.15977966     1.51570
Co1387     Co  0.64402015  0.95288522  0.10533947     1.51470
O1388       O  0.62408755  0.93836154  0.13829787    -1.42610
C1389       C  0.61340861  0.91097864  0.07044329     1.08940
C1390       C  0.61026391  0.90355153  0.19920515     1.09030
C1391       C  0.54436237  0.93065555  0.15703209     1.08960
C1392       C  0.68962012  0.91400784  0.12311623     1.08940
C1393       C  0.03564337  0.62791553  0.01082860    -0.06010
C1394       C  0.03362946  0.60537464  0.03105163    -0.33440
C1395       C  0.01468690  0.60728276  0.05476977     0.35810
C1396       C  0.99708891  0.63187156  0.05816155    -0.06370
C1397       C  0.99992435  0.65477094  0.03866043    -0.33340
C1398       C  0.01909410  0.65321329  0.01540340     0.35720
H1399       H  0.04636941  0.58604913  0.02826921     0.16090
O1400       O  0.01243907  0.58427728  0.07342223    -0.60830
H1401       H  0.98689855  0.67394936  0.04117602     0.16100
O1402       O  0.02072141  0.67642271  0.99686355    -0.60930
H1403       H  0.03509580  0.68954761  0.00574868     0.43100
H1404       H  0.02771473  0.58728342  0.08814298     0.43050
C1405       C  0.99640821  0.04861717  0.66238085    -0.06010
C1406       C  0.98826511  0.02075948  0.67144055    -0.33440
C1407       C  0.00825990  0.99814212  0.67172254     0.35810
C1408       C  0.03707052  0.00360946  0.66408766    -0.06370
C1409       C  0.04565138  0.03224477  0.65887193    -0.33340
C1410       C  0.02573900  0.05454209  0.65798006     0.35720
H1411       H  0.96602410  0.01593070  0.67615857     0.16090
O1412       O  0.99902672  0.97065398  0.67771149    -0.60830
H1413       H  0.06783344  0.03727766  0.65396039     0.16100
O1414       O  0.03510840  0.08181424  0.65117421    -0.60930
H1415       H  0.03777622  0.09163395  0.67032121     0.43100
H1416       H  0.99220438  0.96282627  0.65871013     0.43050
C1417       C  0.62624944  0.05849957  0.00940437    -0.06010
C1418       C  0.64878205  0.03837935  0.00808150    -0.33440
C1419       C  0.65025521  0.01508129  0.02709997     0.35810
C1420       C  0.62959568  0.01161429  0.04939142    -0.06370
C1421       C  0.60768967  0.03244960  0.05198924    -0.33340
C1422       C  0.60599250  0.05586575  0.03222709     0.35720
H1423       H  0.66503529  0.03983555  0.99109258     0.16090
O1424       O  0.67161966  0.99522948  0.02280820    -0.60830
H1425       H  0.59167254  0.03044817  0.06913110     0.16100
O1426       O  0.58384137  0.07501780  0.03459627    -0.60930
H1427       H  0.58833421  0.08691576  0.05210155     0.43100
H1428       H  0.66338600  0.98056291  0.00934690     0.43050
C1429       C  0.38893382  0.62629709  0.54020693    -0.06010
C1430       C  0.36006324  0.61898332  0.53636174    -0.33440
C1431       C  0.34891821  0.61587625  0.50793314     0.35810
C1432       C  0.36676600  0.62047384  0.48322586    -0.06370
C1433       C  0.39440890  0.63135945  0.48752457    -0.33340
C1434       C  0.40571177  0.63358503  0.51553660     0.35720
H1435       H  0.34680929  0.61374752  0.55517470     0.16090
O1436       O  0.32135340  0.60623552  0.50456201    -0.60830
H1437       H  0.40863919  0.63516436  0.46908434     0.16100
O1438       O  0.43408676  0.64054000  0.51827325    -0.60930
H1439       H  0.43514179  0.66170448  0.51527699     0.43100
H1440       H  0.31001257  0.62376202  0.50030348     0.43050
C1441       C  0.49656403  0.54916476  0.66282168    -0.06010
C1442       C  0.49149252  0.52190807  0.67486239    -0.33440
C1443       C  0.51328135  0.50116628  0.67464303     0.35810
C1444       C  0.54002011  0.50770111  0.66147798    -0.06370
C1445       C  0.54590248  0.53586378  0.65268295    -0.33340
C1446       C  0.52475229  0.55677739  0.65418903     0.35720
H1447       H  0.47024919  0.51595819  0.68237997     0.16090
O1448       O  0.50780241  0.47418769  0.68574570    -0.60830
H1449       H  0.56676550  0.54154509  0.64388079     0.16100
O1450       O  0.53136500  0.58419046  0.64508546    -0.60930
H1451       H  0.53874407  0.59407831  0.66280979     0.43100
H1452       H  0.49267502  0.46573168  0.67318354     0.43050
C1453       C  0.46735094  0.39961055  0.63804708    -0.06010
C1454       C  0.47768944  0.42544604  0.62633798    -0.33440
C1455       C  0.50683323  0.43010677  0.62259971     0.35810
C1456       C  0.52682319  0.40933604  0.63222447    -0.06370
C1457       C  0.51674023  0.38446282  0.64643574    -0.33340
C1458       C  0.48710210  0.37915224  0.64869185     0.35720
H1459       H  0.46312038  0.44124088  0.61735870     0.16090
O1460       O  0.51551791  0.45470699  0.60826205    -0.60830
H1461       H  0.53173952  0.36868624  0.65460813     0.16100
O1462       O  0.47771017  0.35337505  0.65989473    -0.60930
H1463       H  0.47350249  0.35736681  0.68084431     0.43100
H1464       H  0.50880046  0.47114846  0.62038912     0.43050
C1465       C  0.37887236  0.46811666  0.51618495    -0.06010
C1466       C  0.40471810  0.48191698  0.50841285    -0.33440
C1467       C  0.40515189  0.50370024  0.48722416     0.35810
C1468       C  0.37970190  0.51112494  0.47297232    -0.06370
C1469       C  0.35399969  0.49724631  0.48064767    -0.33340
C1470       C  0.35334318  0.47622741  0.50233872     0.35720
H1471       H  0.42452438  0.47614232  0.51911599     0.16090
O1472       O  0.43059378  0.51663266  0.47973666    -0.60830
H1473       H  0.33417206  0.50290503  0.46988592     0.16100
O1474       O  0.32780539  0.46303668  0.50906345    -0.60930
H1475       H  0.31803033  0.47635284  0.52290762     0.43100
H1476       H  0.43257799  0.53316276  0.49345236     0.43050
C1477       C  0.35881572  0.47915752  0.63044979    -0.06010
C1478       C  0.37656978  0.48796081  0.65344148    -0.33440
C1479       C  0.38788948  0.51593783  0.65401264     0.35810
C1480       C  0.38144209  0.53545667  0.63136595    -0.06370
C1481       C  0.36028535  0.52815247  0.61106087    -0.33340
C1482       C  0.34830893  0.50033362  0.61107585     0.35720
H1483       H  0.38505430  0.47205961  0.66840853     0.16090
O1484       O  0.40754560  0.52294355  0.67507886    -0.60830
H1485       H  0.35435460  0.54333413  0.59416195     0.16100
O1486       O  0.33034386  0.49257866  0.58869716    -0.60930
H1487       H  0.31114959  0.49078484  0.59790742     0.43100
H1488       H  0.39638440  0.53257630  0.69083962     0.43050
C1489       C  0.61719080  0.54555679  0.76181616    -0.06010
C1490       C  0.63939628  0.52545653  0.76434101    -0.33440
C1491       C  0.64455978  0.50499989  0.74222916     0.35810
C1492       C  0.62756155  0.50462529  0.71671258    -0.06370
C1493       C  0.60503341  0.52466110  0.71453313    -0.33340
C1494       C  0.59990334  0.54505722  0.73674813     0.35720
H1495       H  0.65350555  0.52631799  0.78311221     0.16090
O1496       O  0.66704478  0.48632189  0.74531603    -0.60830
H1497       H  0.59138746  0.52469209  0.69547471     0.16100
O1498       O  0.57818840  0.56464583  0.73361310    -0.60930
H1499       H  0.58674985  0.58099652  0.72263651     0.43100
H1500       H  0.65949633  0.47031211  0.75751907     0.43050
C1501       C  0.54066167  0.63264093  0.75573183    -0.06010
C1502       C  0.54552946  0.64524991  0.72838952    -0.33440
C1503       C  0.52533384  0.64271738  0.70602680     0.35810
C1504       C  0.49983079  0.62689860  0.71089233    -0.06370
C1505       C  0.49621116  0.61236353  0.73773509    -0.33340
C1506       C  0.51634451  0.61532592  0.76012184     0.35720
H1507       H  0.56505316  0.65714915  0.72439644     0.16090
O1508       O  0.53016495  0.65695627  0.68013139    -0.60830
H1509       H  0.47711957  0.59968083  0.74196177     0.16100
O1510       O  0.51164305  0.60196276  0.78650011    -0.60930
H1511       H  0.50132509  0.61634871  0.79870982     0.43100
H1512       H  0.54514495  0.64570910  0.66975281     0.43050
C1513       C  0.24440611  0.47377908  0.39053591    -0.06010
C1514       C  0.26049773  0.47396683  0.36435765    -0.33440
C1515       C  0.27655416  0.49795837  0.35637277     0.35810
C1516       C  0.27620114  0.52249123  0.37422406    -0.06370
C1517       C  0.25880068  0.52319005  0.39944813    -0.33340
C1518       C  0.24295523  0.49890279  0.40777923     0.35720
H1519       H  0.26123435  0.45517879  0.35020583     0.16090
O1520       O  0.29409782  0.49655974  0.33220353    -0.60830
H1521       H  0.25947361  0.54168544  0.41404535     0.16100
O1522       O  0.22781064  0.49926553  0.43362585    -0.60930
H1523       H  0.20932150  0.50855418  0.42893969     0.43100
H1524       H  0.31123116  0.48575384  0.33863704     0.43050
C1525       C  0.24790325  0.38846223  0.46721485    -0.06010
C1526       C  0.27667258  0.39560871  0.46172596    -0.33440
C1527       C  0.29752503  0.39193643  0.48348056     0.35810
C1528       C  0.28983370  0.38019929  0.51092327    -0.06370
C1529       C  0.26111387  0.37276315  0.51616676    -0.33340
C1530       C  0.24027767  0.37687363  0.49466310     0.35720
H1531       H  0.28296517  0.40398844  0.44049423     0.16090
O1532       O  0.32535277  0.39952180  0.47753950    -0.60830
H1533       H  0.25468103  0.36402791  0.53721389     0.16100
O1534       O  0.21262854  0.36863244  0.50042766    -0.60930
H1535       H  0.21142250  0.34814868  0.49417041     0.43100
H1536       H  0.33468698  0.38148033  0.47076954     0.43050
C1537       C  0.54133501  0.76212470  0.64328559    -0.06010
C1538       C  0.52865300  0.75267820  0.66945349    -0.33440
C1539       C  0.50795731  0.73105830  0.66929010     0.35810
C1540       C  0.49922551  0.71855510  0.64249879    -0.06370
C1541       C  0.51277486  0.72696160  0.61641999    -0.33340
C1542       C  0.53364448  0.74869326  0.61661469     0.35720
H1543       H  0.53451739  0.76228765  0.69027408     0.16090
O1544       O  0.49593476  0.72285292  0.69549936    -0.60830
H1545       H  0.50637639  0.71751437  0.59573053     0.16100
O1546       O  0.54573192  0.75707881  0.59054632    -0.60930
H1547       H  0.53355174  0.77307734  0.58349477     0.43100
H1548       H  0.50915206  0.70825964  0.70361569     0.43050
C1549       C  0.63471576  0.71266187  0.75251574    -0.06010
C1550       C  0.65978188  0.72906133  0.74801487    -0.33440
C1551       C  0.66031682  0.75223774  0.72816716     0.35810
C1552       C  0.63566722  0.75913275  0.71203456    -0.06370
C1553       C  0.61074648  0.74265416  0.71642898    -0.33340
C1554       C  0.60994933  0.71981653  0.73663832     0.35720
H1555       H  0.67893685  0.72414053  0.76028709     0.16090
O1556       O  0.68516511  0.76759642  0.72432240    -0.60830
H1557       H  0.59131475  0.74826812  0.70492457     0.16100
O1558       O  0.58431663  0.70652573  0.74306259    -0.60930
H1559       H  0.57345932  0.70511575  0.72448528     0.43100
H1560       H  0.68502989  0.78244019  0.74003281     0.43050
C1561       C  0.30377093  0.26279258  0.39866516    -0.06010
C1562       C  0.28038386  0.25790282  0.41773916    -0.33440
C1563       C  0.25613834  0.27506351  0.41707123     0.35810
C1564       C  0.25504493  0.29866135  0.39797917    -0.06370
C1565       C  0.27876470  0.30465418  0.37972776    -0.33340
C1566       C  0.30302439  0.28678925  0.37986260     0.35720
H1567       H  0.28001964  0.23962844  0.43247892     0.16090
O1568       O  0.23315006  0.26774490  0.43441742    -0.60830
H1569       H  0.27836994  0.32299884  0.36508005     0.16100
O1570       O  0.32552225  0.29279055  0.36140931    -0.60930
H1571       H  0.32027215  0.28396803  0.34233360     0.43100
H1572       H  0.22111842  0.25493462  0.42205974     0.43050
C1573       C  0.38111828  0.25375950  0.48142570    -0.06010
C1574       C  0.40373214  0.25977714  0.50058291    -0.33440
C1575       C  0.40249056  0.28322802  0.51990279     0.35810
C1576       C  0.37850457  0.30167659  0.52009732    -0.06370
C1577       C  0.35585961  0.29587285  0.50082098    -0.33340
C1578       C  0.35688030  0.27188365  0.48184602     0.35720
H1579       H  0.42270999  0.24639089  0.50033028     0.16090
O1580       O  0.42504552  0.28805692  0.53844630    -0.60830
H1581       H  0.33713367  0.30960950  0.50085665     0.16100
O1582       O  0.33479752  0.26731014  0.46272692    -0.60930
H1583       H  0.32083471  0.25519992  0.47361726     0.43100
H1584       H  0.43922958  0.29915222  0.52676753     0.43050
C1585       C  0.36911119  0.13503668  0.29463176    -0.06010
C1586       C  0.39660179  0.12455009  0.28793976    -0.33440
C1587       C  0.40740819  0.12551750  0.25938084     0.35810
C1588       C  0.39029486  0.13525927  0.23625847    -0.06370
C1589       C  0.36157077  0.14225022  0.24202999    -0.33340
C1590       C  0.35086662  0.14202152  0.27105719     0.35720
H1591       H  0.41119597  0.11871921  0.30528787     0.16090
O1592       O  0.43560091  0.11891646  0.25468101    -0.60830
H1593       H  0.34789346  0.14922116  0.22434011     0.16100
O1594       O  0.32285786  0.14928430  0.27623661    -0.60930
H1595       H  0.32262590  0.17058961  0.27759352     0.43100
H1596       H  0.44628434  0.13693597  0.25914267     0.43050
C1597       C  0.49599957  0.05519046  0.11695566    -0.06010
C1598       C  0.49407487  0.03354259  0.09537064    -0.33440
C1599       C  0.51473193  0.01181074  0.09320655     0.35810
C1600       C  0.53808324  0.01159654  0.11265166    -0.06370
C1601       C  0.54094186  0.03429601  0.13296604    -0.33340
C1602       C  0.52026596  0.05590999  0.13524283     0.35720
H1603       H  0.47593840  0.03280169  0.08068642     0.16090
O1604       O  0.51137807  0.99052278  0.07252501    -0.60830
H1605       H  0.55865298  0.03470171  0.14819759     0.16100
O1606       O  0.52318211  0.07644925  0.15676709    -0.60930
H1607       H  0.53466930  0.09210778  0.14768532     0.43100
H1608       H  0.49778778  0.97651823  0.08138785     0.43050
C1609       C  0.53385052  0.12568527  0.99767019    -0.06010
C1610       C  0.50605779  0.11658588  0.99024511    -0.33440
C1611       C  0.48495231  0.11307286  0.01182703     0.35810
C1612       C  0.49189609  0.11776517  0.04139628    -0.06370
C1613       C  0.52006836  0.12588242  0.04872499    -0.33340
C1614       C  0.54084682  0.13047945  0.02706770     0.35720
H1615       H  0.50064056  0.11249136  0.96752148     0.16090
O1616       O  0.45761753  0.10584645  0.00371967    -0.60830
H1617       H  0.52590223  0.12938460  0.07143057     0.16100
O1618       O  0.56834091  0.13776897  0.03478081    -0.60930
H1619       H  0.56674367  0.15404062  0.04886931     0.43100
H1620       H  0.44890362  0.12414390  0.99706113     0.43050
C1621       C  0.37679423  0.62328699  0.29810414    -0.06010
C1622       C  0.39428659  0.61386218  0.27477489    -0.33440
C1623       C  0.38541597  0.61710384  0.24571494     0.35810
C1624       C  0.35840061  0.62880291  0.23988828    -0.06370
C1625       C  0.34288688  0.64162173  0.26267064    -0.33340
C1626       C  0.35157271  0.63864290  0.29166808     0.35720
H1627       H  0.41413532  0.60266694  0.27909535     0.16090
O1628       O  0.40280945  0.60793609  0.22336137    -0.60830
H1629       H  0.32359423  0.65354422  0.25805028     0.16100
O1630       O  0.33411159  0.64901948  0.31348568    -0.60930
H1631       H  0.31873943  0.63432644  0.31553876     0.43100
H1632       H  0.41418302  0.62514829  0.21766185     0.43050
C1633       C  0.25464828  0.63715716  0.05003554    -0.06010
C1634       C  0.26138311  0.62238408  0.02405551    -0.33440
C1635       C  0.24013778  0.61610147  0.00341445     0.35810
C1636       C  0.21176826  0.62537877  0.00830989    -0.06370
C1637       C  0.20507863  0.63985438  0.03450791    -0.33340
C1638       C  0.22624989  0.64553398  0.05534511     0.35720
H1639       H  0.28319900  0.61564118  0.01978904     0.16090
O1640       O  0.24765691  0.60222959  0.97792178    -0.60830
H1641       H  0.18339764  0.64705860  0.03876109     0.16100
O1642       O  0.21898607  0.65953484  0.08068586    -0.60930
H1643       H  0.21736096  0.68013805  0.07514610     0.43100
H1644       H  0.24717455  0.58138527  0.98271861     0.43050
C1645       C  0.35009714  0.30007662  0.63486377    -0.06010
C1646       C  0.32149731  0.29271130  0.64072909    -0.33440
C1647       C  0.31376715  0.26386836  0.64518747     0.35810
C1648       C  0.33474421  0.24229209  0.64290975    -0.06370
C1649       C  0.36352719  0.24988036  0.63925912    -0.33340
C1650       C  0.37139581  0.27866878  0.63574212     0.35720
H1651       H  0.30494454  0.30899455  0.63968649     0.16090
O1652       O  0.28548352  0.25675169  0.64917381    -0.60830
H1653       H  0.37974734  0.23328160  0.63748891     0.16100
O1654       O  0.39937478  0.28511452  0.62911087    -0.60930
H1655       H  0.40844910  0.28948160  0.64822095     0.43100
H1656       H  0.27727187  0.25588804  0.62919314     0.43050
C1657       C  0.38614245  0.14134431  0.48258784    -0.06010
C1658       C  0.37078347  0.11592618  0.48876989    -0.33440
C1659       C  0.36257196  0.10911517  0.51763134     0.35810
C1660       C  0.36882054  0.12839821  0.54085550    -0.06370
C1661       C  0.38671595  0.15208663  0.53509834    -0.33340
C1662       C  0.39598655  0.15821303  0.50648103     0.35720
H1663       H  0.36316237  0.10246272  0.47096149     0.16090
O1664       O  0.34639096  0.08479626  0.52240960    -0.60830
H1665       H  0.39209545  0.16698849  0.55259926     0.16100
O1666       O  0.41156952  0.18292643  0.50190432    -0.60930
H1667       H  0.43182834  0.17662692  0.50150428     0.43100
H1668       H  0.32620432  0.09122157  0.52163884     0.43050
C1669       C  0.23946629  0.04465821  0.63146155    -0.06010
C1670       C  0.23582873  0.02334865  0.61016288    -0.33440
C1671       C  0.21956923  0.99905208  0.61653306     0.35810
C1672       C  0.20627536  0.99644918  0.64427552    -0.06370
C1673       C  0.20896816  0.01834858  0.66510981    -0.33340
C1674       C  0.22540832  0.04255906  0.65875981     0.35720
H1675       H  0.24736344  0.02446019  0.58950464     0.16090
O1676       O  0.21759320  0.97752139  0.59589304    -0.60830
H1677       H  0.19815611  0.01683531  0.68613850     0.16100
O1678       O  0.22883500  0.06346189  0.67980631    -0.60930
H1679       H  0.21036097  0.07391362  0.68042659     0.43100
H1680       H  0.23230085  0.96318389  0.60143468     0.43050
C1681       C  0.48956463  0.30238025  0.36906755    -0.06010
C1682       C  0.49477397  0.27547612  0.35625121    -0.33440
C1683       C  0.47290593  0.25484493  0.35438798     0.35810
C1684       C  0.44515024  0.26093786  0.36572899    -0.06370
C1685       C  0.43942717  0.28872720  0.37617854    -0.33340
C1686       C  0.46124842  0.30940634  0.37778855     0.35720
H1687       H  0.51622650  0.26974136  0.34924968     0.16090
O1688       O  0.47972104  0.22803505  0.34364049    -0.60830
H1689       H  0.41826050  0.29414420  0.38427846     0.16100
O1690       O  0.45471801  0.33638147  0.38836235    -0.60930
H1691       H  0.45295253  0.33413351  0.40991681     0.43100
H1692       H  0.47611163  0.22911019  0.32227489     0.43050
C1693       C  0.50309495  0.39123271  0.48361703    -0.06010
C1694       C  0.47800420  0.37448192  0.48032485    -0.33440
C1695       C  0.46084863  0.36753588  0.50414159     0.35810
C1696       C  0.46829176  0.37759175  0.53199707    -0.06370
C1697       C  0.49352934  0.39395946  0.53571232    -0.33340
C1698       C  0.51114461  0.40053804  0.51171483     0.35720
H1699       H  0.47124043  0.36675713  0.45900241     0.16090
O1700       O  0.43593061  0.35241008  0.49961520    -0.60830
H1701       H  0.49912921  0.40230765  0.55716589     0.16100
O1702       O  0.53562391  0.41640957  0.51590724    -0.60930
H1703       H  0.55069793  0.40205604  0.52026703     0.43100
H1704       H  0.42121952  0.36721322  0.49548579     0.43050
C1705       C  0.61145295  0.38268280  0.47689515    -0.06010
C1706       C  0.62696335  0.40843907  0.48053457    -0.33440
C1707       C  0.63430436  0.41830238  0.50852212     0.35810
C1708       C  0.62650232  0.40231505  0.53353733    -0.06370
C1709       C  0.61395119  0.37507663  0.52989574    -0.33340
C1710       C  0.60681741  0.36497712  0.50176427     0.35720
H1711       H  0.63096735  0.42247897  0.46201370     0.16090
O1712       O  0.64646447  0.44510173  0.51134697    -0.60830
H1713       H  0.60790602  0.36250361  0.54893511     0.16100
O1714       O  0.59296558  0.33896136  0.49920973    -0.60930
H1715       H  0.60786581  0.32519693  0.49252978     0.43100
H1716       H  0.66739812  0.44177513  0.51032508     0.43050
C1717       C  0.49942255  0.47173842  0.38394049    -0.06010
C1718       C  0.50046892  0.49205262  0.36120824    -0.33440
C1719       C  0.47990982  0.51369713  0.35909185     0.35810
C1720       C  0.45731704  0.51519084  0.37969111    -0.06370
C1721       C  0.45601527  0.49469541  0.40228993    -0.33340
C1722       C  0.47673210  0.47303915  0.40446857     0.35720
H1723       H  0.51773761  0.49166439  0.34525809     0.16090
O1724       O  0.48254069  0.53359293  0.33704481    -0.60830
H1725       H  0.43884266  0.49537420  0.41833939     0.16100
O1726       O  0.47462819  0.45346976  0.42686884    -0.60930
H1727       H  0.46366523  0.43698548  0.41864971     0.43100
H1728       H  0.49436433  0.54939608  0.34540132     0.43050
C1729       C  0.52287019  0.64032821  0.40832641    -0.06010
C1730       C  0.49937362  0.65925134  0.40710764    -0.33440
C1731       C  0.47129644  0.64836864  0.40492186     0.35810
C1732       C  0.46674557  0.61839946  0.40399324    -0.06370
C1733       C  0.49004003  0.59969914  0.40461998    -0.33340
C1734       C  0.51782530  0.61025245  0.40692612     0.35720
H1735       H  0.50274245  0.68236750  0.40814645     0.16090
O1736       O  0.44859566  0.66701461  0.40426369    -0.60830
H1737       H  0.48661072  0.57653207  0.40417645     0.16100
O1738       O  0.53986431  0.59080790  0.40831493    -0.60930
H1739       H  0.53739022  0.58059378  0.42723559     0.43100
H1740       H  0.44264646  0.66944683  0.42502508     0.43050
C1741       C  0.54242937  0.63464633  0.50388018    -0.06010
C1742       C  0.52781527  0.66068364  0.50949291    -0.33440
C1743       C  0.50637428  0.66229480  0.53111129     0.35810
C1744       C  0.49953897  0.63772686  0.54769779    -0.06370
C1745       C  0.51433245  0.61185898  0.54223565    -0.33340
C1746       C  0.53543307  0.61015163  0.52052099     0.35720
H1747       H  0.53259806  0.67975732  0.49667377     0.16090
O1748       O  0.49230884  0.68784026  0.53584898    -0.60830
H1749       H  0.50932071  0.59262520  0.55472633     0.16100
O1750       O  0.54911786  0.58442612  0.51586663    -0.60930
H1751       H  0.56442948  0.58386748  0.53082243     0.43100
H1752       H  0.50648307  0.70071363  0.54540477     0.43050
C1753       C  0.63939359  0.50732491  0.54096955    -0.06010
C1754       C  0.66252411  0.51169967  0.52180168    -0.33440
C1755       C  0.65952393  0.52886898  0.49694820     0.35810
C1756       C  0.63302832  0.54205692  0.49083684    -0.06370
C1757       C  0.60942896  0.53616678  0.50884016    -0.33340
C1758       C  0.61249111  0.51934697  0.53402607     0.35720
H1759       H  0.68315675  0.50210162  0.52624881     0.16090
O1760       O  0.68290285  0.53337475  0.47919016    -0.60830
H1761       H  0.58890619  0.54577515  0.50418125     0.16100
O1762       O  0.58891650  0.51448795  0.55140647    -0.60930
H1763       H  0.58752850  0.53167463  0.56436017     0.43100
H1764       H  0.68357424  0.51637025  0.46595004     0.43050
C1765       C  0.62575038  0.54336388  0.39183967    -0.06010
C1766       C  0.64272168  0.52261557  0.40619806    -0.33440
C1767       C  0.63333183  0.49386647  0.40950279     0.35810
C1768       C  0.60699607  0.48505573  0.39766944    -0.06370
C1769       C  0.59111090  0.50497509  0.38139958    -0.33340
C1770       C  0.60010638  0.53386747  0.37855782     0.35720
H1771       H  0.66246141  0.52909767  0.41669570     0.16090
O1772       O  0.64967459  0.47478804  0.42500132    -0.60830
H1773       H  0.57090756  0.49843978  0.37185557     0.16100
O1774       O  0.58341882  0.55279518  0.36318231    -0.60930
H1775       H  0.56499324  0.55384874  0.37401136     0.43100
H1776       H  0.64380848  0.47743310  0.44576447     0.43050
C1777       C  0.62037760  0.71884474  0.50338573    -0.06010
C1778       C  0.59731184  0.73840910  0.50403206    -0.33440
C1779       C  0.59482950  0.75926326  0.52635356     0.35810
C1780       C  0.61568248  0.76085624  0.54841155    -0.06370
C1781       C  0.63848758  0.74108828  0.54781848    -0.33340
C1782       C  0.64107314  0.72049509  0.52565047     0.35720
H1783       H  0.58096150  0.73746874  0.48732826     0.16090
O1784       O  0.57203656  0.77782903  0.52640064    -0.60830
H1785       H  0.65499058  0.74186853  0.56440790     0.16100
O1786       O  0.66413564  0.70225855  0.52602054    -0.60930
H1787       H  0.67939752  0.71239523  0.51485527     0.43100
H1788       H  0.55511119  0.76585081  0.53149394     0.43050
C1789       C  0.38665358  0.22306397  0.13985812    -0.06010
C1790       C  0.39449677  0.23225417  0.16796981    -0.33440
C1791       C  0.39654895  0.26151576  0.17486322     0.35810
C1792       C  0.38790660  0.28267079  0.15460873    -0.06370
C1793       C  0.37689988  0.27355367  0.12745225    -0.33340
C1794       C  0.37707662  0.24393426  0.11968294     0.35720
H1795       H  0.40221725  0.21685074  0.18383044     0.16090
O1796       O  0.40812044  0.26923577  0.20133619    -0.60830
H1797       H  0.36992781  0.28939706  0.11165970     0.16100
O1798       O  0.36900479  0.23574752  0.09204121    -0.60930
H1799       H  0.34850234  0.23039239  0.09388830     0.43100
H1800       H  0.42915420  0.26800974  0.19851832     0.43050
C1801       C  0.37466512  0.54810136  0.14239635    -0.06010
C1802       C  0.36924562  0.52629250  0.12159183    -0.33440
C1803       C  0.37518394  0.49713560  0.12776897     0.35810
C1804       C  0.38759770  0.48943545  0.15481301    -0.06370
C1805       C  0.39616975  0.51182632  0.17385342    -0.33340
C1806       C  0.38943950  0.54069803  0.16799684     0.35720
H1807       H  0.35762359  0.53140896  0.10179465     0.16090
O1808       O  0.36731022  0.47629403  0.10792973    -0.60830
H1809       H  0.40585122  0.50686650  0.19475190     0.16100
O1810       O  0.39548208  0.56129741  0.18858259    -0.60930
H1811       H  0.41519248  0.56783759  0.18380664     0.43100
H1812       H  0.34630014  0.47408264  0.11035817     0.43050
C1813       C  0.35859866  0.47279921  0.26229103    -0.06010
C1814       C  0.33997116  0.49649096  0.26020156    -0.33440
C1815       C  0.33950941  0.51812139  0.28205005     0.35810
C1816       C  0.35798729  0.51631538  0.30645901    -0.06370
C1817       C  0.37634243  0.49254311  0.30838824    -0.33340
C1818       C  0.37687548  0.47118955  0.28686732     0.35720
H1819       H  0.32586630  0.49836671  0.24154814     0.16090
O1820       O  0.32139217  0.54111326  0.27893278    -0.60830
H1821       H  0.39110670  0.49058068  0.32650127     0.16100
O1822       O  0.39658703  0.44950944  0.28958970    -0.60930
H1823       H  0.38747722  0.43513950  0.30275738     0.43100
H1824       H  0.30276354  0.53453564  0.28705399     0.43050
C1825       C  0.29622504  0.38372322  0.25641542    -0.06010
C1826       C  0.28276545  0.35659741  0.25845156    -0.33440
C1827       C  0.26157653  0.35147693  0.27969579     0.35810
C1828       C  0.25451680  0.37337560  0.29974839    -0.06370
C1829       C  0.26790107  0.40056140  0.29734856    -0.33340
C1830       C  0.28851223  0.40584731  0.27579770     0.35720
H1831       H  0.28871059  0.33939126  0.24347917     0.16090
O1832       O  0.24903660  0.32475434  0.28162484    -0.60830
H1833       H  0.26240728  0.41785891  0.31235596     0.16100
O1834       O  0.30145778  0.43240913  0.27430645    -0.60930
H1835       H  0.31677431  0.43195802  0.28926774     0.43100
H1836       H  0.23421279  0.32444871  0.26615499     0.43050
C1837       C  0.36736027  0.28972193  0.24721401    -0.06010
C1838       C  0.34760972  0.26702819  0.24399810    -0.33440
C1839       C  0.34804672  0.24326939  0.26266244     0.35810
C1840       C  0.36845671  0.24168861  0.28507338    -0.06370
C1841       C  0.38928420  0.26347318  0.28744630    -0.33340
C1842       C  0.38877192  0.28750880  0.26882560     0.35720
H1843       H  0.33142583  0.26776667  0.22710236     0.16090
O1844       O  0.32762869  0.22220642  0.25958344    -0.60830
H1845       H  0.40476021  0.26285676  0.30504829     0.16100
O1846       O  0.40867396  0.30901003  0.27262828    -0.60930
H1847       H  0.39975859  0.32275580  0.28664559     0.43100
H1848       H  0.33471552  0.20972733  0.24340342     0.43050
C1849       C  0.45778819  0.37535311  0.25964676    -0.06010
C1850       C  0.45445785  0.39452025  0.28351786    -0.33440
C1851       C  0.47673494  0.39965803  0.30306466     0.35810
C1852       C  0.50289920  0.38561877  0.29903549    -0.06370
C1853       C  0.50646488  0.36623349  0.27558486    -0.33340
C1854       C  0.48420246  0.36125834  0.25568431     0.35720
H1855       H  0.43447924  0.40575746  0.28712644     0.16090
O1856       O  0.47259642  0.41806332  0.32633565    -0.60830
H1857       H  0.52641570  0.35459404  0.27301476     0.16100
O1858       O  0.48820027  0.34201944  0.23312532    -0.60930
H1859       H  0.49927636  0.35271918  0.21806534     0.43100
H1860       H  0.46539486  0.40573024  0.34251685     0.43050
C1861       C  0.25942155  0.54317274  0.14203593    -0.06010
C1862       C  0.26464217  0.51885047  0.12449434    -0.33440
C1863       C  0.24236689  0.49957311  0.11788596     0.35810
C1864       C  0.21432305  0.50520266  0.12808724    -0.06370
C1865       C  0.20923066  0.53004732  0.14497713    -0.33340
C1866       C  0.23144822  0.54893102  0.15190158     0.35720
H1867       H  0.28604105  0.51462802  0.11627881     0.16090
O1868       O  0.24839024  0.47504151  0.10215139    -0.60830
H1869       H  0.18789417  0.53489200  0.15299368     0.16100
O1870       O  0.22545071  0.57347063  0.16769477    -0.60930
H1871       H  0.22143038  0.58848537  0.15284524     0.43100
H1872       H  0.25540604  0.46101219  0.11679443     0.43050
C1873       C  0.22158825  0.39715536  0.14551179    -0.06010
C1874       C  0.24140705  0.39889053  0.12212893    -0.33440
C1875       C  0.27041488  0.39122100  0.12589704     0.35810
C1876       C  0.27993522  0.38047474  0.15302256    -0.06370
C1877       C  0.25950808  0.37666888  0.17555310    -0.33340
C1878       C  0.23099957  0.38562699  0.17228285     0.35720
H1879       H  0.23487956  0.40818156  0.10147043     0.16090
O1880       O  0.28942631  0.39539756  0.10330544    -0.60830
H1881       H  0.26605527  0.36857640  0.19670144     0.16100
O1882       O  0.21262171  0.38361994  0.19572218    -0.60930
H1883       H  0.21716375  0.40045596  0.20838176     0.43100
H1884       H  0.29000736  0.37671308  0.09265680     0.43050
C1885       C  0.14580671  0.38486069  0.28888577    -0.06010
C1886       C  0.11832490  0.39639150  0.28533527    -0.33440
C1887       C  0.10732041  0.40076842  0.25699056     0.35810
C1888       C  0.12374891  0.39312496  0.23211717    -0.06370
C1889       C  0.14936153  0.37816079  0.23610158    -0.33340
C1890       C  0.16073133  0.37459255  0.26406078     0.35720
H1891       H  0.10647460  0.40414819  0.30424605     0.16090
O1892       O  0.08199572  0.41522235  0.25375770    -0.60830
H1893       H  0.16222210  0.37220224  0.21722887     0.16100
O1894       O  0.18731898  0.36250592  0.26672923    -0.60930
H1895       H  0.20105505  0.37827323  0.26222930     0.43100
H1896       H  0.08697630  0.43587707  0.25621659     0.43050
C1897       C  0.12015952  0.50649810  0.05733707    -0.06010
C1898       C  0.10072379  0.50636356  0.03403062    -0.33440
C1899       C  0.10091131  0.52822354  0.01289008     0.35810
C1900       C  0.12122809  0.55103571  0.01411202    -0.06370
C1901       C  0.14001204  0.55191526  0.03805747    -0.33340
C1902       C  0.13953053  0.53006312  0.05956570     0.35720
H1903       H  0.08532823  0.48894772  0.03188645     0.16090
O1904       O  0.08126552  0.52659828  0.99070234    -0.60830
H1905       H  0.15570535  0.56910611  0.03969211     0.16100
O1906       O  0.15911404  0.53132322  0.08180238    -0.60930
H1907       H  0.14968149  0.54262581  0.09760529     0.43100
H1908       H  0.06459349  0.53791158  0.99774844     0.43050
C1909       C  0.04284126  0.50109010  0.12152406    -0.06010
C1910       C  0.04092527  0.52237447  0.14348193    -0.33440
C1911       C  0.01786134  0.54169852  0.14451508     0.35810
C1912       C  0.99588959  0.53998244  0.12339164    -0.06370
C1913       C  0.99826263  0.51925784  0.10095925    -0.33340
C1914       C  0.02125190  0.49992739  0.09994768     0.35720
H1915       H  0.05694295  0.52358087  0.16049499     0.16090
O1916       O  0.01694146  0.56187391  0.16656557    -0.60830
H1917       H  0.98195826  0.51765970  0.08422708     0.16100
O1918       O  0.02232216  0.47999517  0.07765035    -0.60930
H1919       H  0.00926953  0.46418925  0.08382916     0.43100
H1920       H  0.02723544  0.57893941  0.15868016     0.43050
C1921       C  0.21771030  0.37245345  0.63027686    -0.06010
C1922       C  0.21928537  0.39702409  0.61233682    -0.33440
C1923       C  0.24598120  0.40933371  0.60499720     0.35810
C1924       C  0.27142469  0.39668011  0.61532772    -0.06370
C1925       C  0.26935939  0.37361639  0.63515989    -0.33340
C1926       C  0.24302675  0.36133930  0.64232966     0.35720
H1927       H  0.19996305  0.40582673  0.60292813     0.16090
O1928       O  0.24696953  0.43258794  0.58652095    -0.60830
H1929       H  0.28846195  0.36334462  0.64345566     0.16100
O1930       O  0.24268140  0.33617767  0.65811891    -0.60930
H1931       H  0.24337737  0.34228289  0.67895075     0.43100
H1932       H  0.24574541  0.42433409  0.56647591     0.43050
C1933       C  0.20224776  0.25106129  0.61179391    -0.06010
C1934       C  0.22091791  0.24539031  0.58819984    -0.33440
C1935       C  0.23957624  0.22153433  0.58871091     0.35810
C1936       C  0.23972084  0.20273710  0.61308866    -0.06370
C1937       C  0.21957737  0.20722702  0.63548126    -0.33340
C1938       C  0.20132102  0.23105277  0.63523793     0.35720
H1939       H  0.22200729  0.26014438  0.56986769     0.16090
O1940       O  0.25884534  0.21800994  0.56620960    -0.60830
H1941       H  0.21905781  0.19315474  0.65440243     0.16100
O1942       O  0.18308496  0.23476233  0.65861743    -0.60930
H1943       H  0.19486973  0.24374699  0.67423543     0.43100
H1944       H  0.24748096  0.21054044  0.54951237     0.43050
C1945       C  0.12355345  0.36393060  0.53316140    -0.06010
C1946       C  0.10820807  0.34947142  0.51111676    -0.33440
C1947       C  0.11548560  0.35334430  0.48156844     0.35810
C1948       C  0.13827562  0.37176429  0.47416301    -0.06370
C1949       C  0.15099243  0.38885438  0.49598216    -0.33340
C1950       C  0.14404991  0.38473495  0.52544579     0.35720
H1951       H  0.09259136  0.33307741  0.51691968     0.16090
O1952       O  0.10184520  0.33737599  0.46050791    -0.60830
H1953       H  0.16797922  0.40383019  0.49042866     0.16100
O1954       O  0.15958393  0.39875478  0.54661348    -0.60930
H1955       H  0.14786588  0.41571733  0.55222653     0.43100
H1956       H  0.08653527  0.35008883  0.45300661     0.43050
C1957       C  0.04530926  0.26222979  0.64859928    -0.06010
C1958       C  0.04489429  0.24012218  0.62746153    -0.33440
C1959       C  0.02241378  0.22011259  0.62664190     0.35810
C1960       C  0.99986565  0.22191337  0.64728150    -0.06370
C1961       C  0.00106457  0.24315078  0.66924007    -0.33340
C1962       C  0.02333213  0.26327271  0.66993351     0.35720
H1963       H  0.06147619  0.23892184  0.61079697     0.16090
O1964       O  0.02254179  0.19929109  0.60522514    -0.60830
H1965       H  0.98424259  0.24474216  0.68561317     0.16100
O1966       O  0.02324496  0.28396635  0.69153485    -0.60930
H1967       H  0.00951688  0.29882092  0.68486212     0.43100
H1968       H  0.03193599  0.18240393  0.61428189     0.43050
C1969       C  0.62172071  0.36202795  0.23424956    -0.06010
C1970       C  0.63370018  0.34346789  0.25502444    -0.33440
C1971       C  0.62887459  0.34788771  0.28474677     0.35810
C1972       C  0.61187711  0.37109003  0.29379936    -0.06370
C1973       C  0.60318091  0.39188288  0.27338183    -0.33340
C1974       C  0.60811039  0.38742433  0.24342169     0.35720
H1975       H  0.64455475  0.32400333  0.24811767     0.16090
O1976       O  0.63789278  0.32761062  0.30441921    -0.60830
H1977       H  0.58981347  0.40975295  0.28030042     0.16100
O1978       O  0.59661571  0.40599107  0.22341826    -0.60930
H1979       H  0.61234337  0.41954663  0.21840273     0.43100
H1980       H  0.65622968  0.33519983  0.31216525     0.43050
C1981       C  0.49117469  0.21730061  0.14360473    -0.06010
C1982       C  0.51996148  0.20977832  0.14587423    -0.33440
C1983       C  0.54168936  0.22940626  0.13966178     0.35810
C1984       C  0.53503373  0.25763314  0.13032469    -0.06370
C1985       C  0.50602560  0.26540573  0.12768627    -0.33340
C1986       C  0.48409271  0.24533047  0.13416163     0.35720
H1987       H  0.52582484  0.18794642  0.15131110     0.16090
O1988       O  0.56953524  0.22060866  0.14290478    -0.60830
H1989       H  0.50037084  0.28697821  0.12078316     0.16100
O1990       O  0.45605196  0.25289679  0.13005805    -0.60930
H1991       H  0.45188146  0.24790098  0.10935449     0.43100
H1992       H  0.57298855  0.20640250  0.12698058     0.43050
C1993       C  0.53058195  0.36872415  0.14726179    -0.06010
C1994       C  0.50840574  0.36066084  0.12810413    -0.33440
C1995       C  0.48015584  0.37055544  0.13227970     0.35810
C1996       C  0.47341220  0.38913978  0.15596655    -0.06370
C1997       C  0.49628094  0.39886874  0.17371782    -0.33340
C1998       C  0.52440501  0.38860671  0.16969931     0.35720
H1999       H  0.51267262  0.34527150  0.11069601     0.16090
O2000       O  0.45907455  0.36030241  0.11419449    -0.60830
H2001       H  0.49211357  0.41293097  0.19226160     0.16100
O2002       O  0.54530808  0.39685515  0.18894820    -0.60930
H2003       H  0.55415788  0.41426690  0.18009893     0.43100
H2004       H  0.45733226  0.37496054  0.09853632     0.43050
C2005       C  0.62011354  0.25799466  0.04028280    -0.06010
C2006       C  0.63698676  0.25917839  0.01491898    -0.33440
C2007       C  0.63591894  0.23742209  0.99381274     0.35810
C2008       C  0.61812524  0.21278900  0.99777050    -0.06370
C2009       C  0.60022621  0.21201554  0.02262610    -0.33340
C2010       C  0.60120971  0.23429496  0.04388554     0.35720
H2011       H  0.65111779  0.27739828  0.01109883     0.16090
O2012       O  0.65245168  0.24083601  0.96908782    -0.60830
H2013       H  0.58587877  0.19398289  0.02581027     0.16100
O2014       O  0.58406773  0.23230747  0.06826538    -0.60930
H2015       H  0.59642333  0.22371809  0.08349632     0.43100
H2016       H  0.64022917  0.25149027  0.95512975     0.43050
C2017       C  0.19887292  0.14316250  0.75621957    -0.06010
C2018       C  0.22715779  0.14965632  0.76464143    -0.33440
C2019       C  0.24995375  0.14721588  0.74480133     0.35810
C2020       C  0.24481899  0.13804920  0.71597435    -0.06370
C2021       C  0.21659022  0.13235218  0.70712672    -0.33340
C2022       C  0.19367650  0.13471595  0.72702403     0.35720
H2023       H  0.23191122  0.15568158  0.78707281     0.16090
O2024       O  0.27737902  0.15187318  0.75433575    -0.60830
H2025       H  0.21234103  0.12592545  0.68471225     0.16100
O2026       O  0.16637836  0.12912440  0.71761245    -0.60930
H2027       H  0.16430139  0.10783377  0.71841267     0.43100
H2028       H  0.27898433  0.17304831  0.75710501     0.43050
C2029       C  0.11493991  0.99919079  0.72189893    -0.06010
C2030       C  0.09216134  0.01793119  0.72748690    -0.33440
C2031       C  0.09550885  0.04098057  0.74714577     0.35810
C2032       C  0.12185483  0.04503680  0.76178382    -0.06370
C2033       C  0.14437037  0.02575168  0.75622969    -0.33340
C2034       C  0.14102901  0.00301880  0.73654132     0.35720
H2035       H  0.07206899  0.01515148  0.71609611     0.16090
O2036       O  0.07296104  0.05931982  0.75174133    -0.60830
H2037       H  0.16472159  0.02812643  0.76726696     0.16100
O2038       O  0.16354327  0.98469022  0.73154946    -0.60930
H2039       H  0.16077558  0.96863869  0.74561437     0.43100
H2040       H  0.07419170  0.07356625  0.73560768     0.43050
C2041       C  0.11694859  0.26803720  0.72018286    -0.06010
C2042       C  0.11737711  0.27564591  0.75002309    -0.33440
C2043       C  0.12515096  0.25525743  0.77130645     0.35810
C2044       C  0.13274836  0.22702897  0.76270460    -0.06370
C2045       C  0.13240485  0.21968260  0.73292223    -0.33340
C2046       C  0.12424643  0.23957891  0.71188917     0.35720
H2047       H  0.11210842  0.29743411  0.75680022     0.16090
O2048       O  0.12353943  0.26258534  0.80038903    -0.60830
H2049       H  0.13743858  0.19786378  0.72597126     0.16100
O2050       O  0.12342050  0.23082045  0.68312375    -0.60930
H2051       H  0.10310109  0.22583068  0.67938384     0.43100
H2052       H  0.14180190  0.27269121  0.80461988     0.43050
C2053       C  0.99745378  0.12552776  0.71376097    -0.06010
C2054       C  0.99569492  0.10474340  0.73616754    -0.33440
C2055       C  0.01623434  0.10382516  0.75840284     0.35810
C2056       C  0.03910975  0.12358767  0.75808600    -0.06370
C2057       C  0.04124255  0.14362852  0.73511138    -0.33340
C2058       C  0.02069218  0.14492280  0.71334227     0.35720
H2059       H  0.97811414  0.08944851  0.73676850     0.16090
O2060       O  0.01395783  0.08337967  0.77994090    -0.60830
H2061       H  0.05859156  0.15919679  0.73430106     0.16100
O2062       O  0.02334393  0.16577905  0.69221226    -0.60930
H2063       H  0.01445182  0.18328477  0.70085513     0.43100
H2064       H  0.99982791  0.09125036  0.79413749     0.43050
C2065       C  0.75265945  0.71864524  0.65713305    -0.06010
C2066       C  0.75770775  0.74464027  0.67221706    -0.33440
C2067       C  0.73708277  0.76657768  0.67218169     0.35810
C2068       C  0.71123257  0.76233992  0.65691453    -0.06370
C2069       C  0.70552994  0.73551337  0.64411824    -0.33340
C2070       C  0.72586992  0.71406599  0.64349494     0.35720
H2071       H  0.77806121  0.74848200  0.68283114     0.16090
O2072       O  0.74310759  0.79240933  0.68556740    -0.60830
H2073       H  0.68570549  0.73143591  0.63255360     0.16100
O2074       O  0.72031146  0.68999043  0.62667937    -0.60930
H2075       H  0.70242555  0.68134181  0.63456491     0.43100
H2076       H  0.73828712  0.78948980  0.70653923     0.43050
C2077       C  0.75112548  0.54843071  0.64524042    -0.06010
C2078       C  0.73483992  0.54493782  0.61967209    -0.33440
C2079       C  0.71182010  0.52551046  0.61882924     0.35810
C2080       C  0.70463132  0.50921654  0.64387306    -0.06370
C2081       C  0.72022697  0.51340974  0.66968383    -0.33340
C2082       C  0.74302851  0.53297096  0.67066459     0.35720
H2083       H  0.74038679  0.55670154  0.59994888     0.16090
O2084       O  0.69743992  0.52164790  0.59299440    -0.60830
H2085       H  0.71497411  0.50109862  0.68915370     0.16100
O2086       O  0.75758978  0.53618922  0.69649911    -0.60930
H2087       H  0.74752900  0.55189482  0.70715446     0.43100
H2088       H  0.70917671  0.50776023  0.58155153     0.43050
C2089       C  0.75521970  0.64623584  0.71488469    -0.06010
C2090       C  0.76303304  0.64560200  0.74445873    -0.33440
C2091       C  0.74252103  0.64909522  0.76647031     0.35810
C2092       C  0.71380317  0.65365753  0.75889353    -0.06370
C2093       C  0.70610840  0.65510834  0.72922692    -0.33340
C2094       C  0.72660714  0.65107001  0.70723906     0.35720
H2095       H  0.78491726  0.64103192  0.75057256     0.16090
O2096       O  0.75020861  0.64497451  0.79507829    -0.60830
H2097       H  0.68391026  0.65806709  0.72315634     0.16100
O2098       O  0.71852209  0.65189459  0.67845720    -0.60930
H2099       H  0.71214380  0.63199786  0.67371224     0.43100
H2100       H  0.76336269  0.66116023  0.79978986     0.43050
C2101       C  0.75277690  0.62938343  0.54872872    -0.06010
C2102       C  0.76395853  0.63717174  0.52116819    -0.33440
C2103       C  0.74579711  0.64709637  0.49896894     0.35810
C2104       C  0.71614799  0.64895260  0.50424063    -0.06370
C2105       C  0.70517062  0.64121596  0.53178921    -0.33340
C2106       C  0.72320592  0.63180240  0.55399271     0.35720
H2107       H  0.78680542  0.63610293  0.51705392     0.16090
O2108       O  0.75690787  0.65299501  0.47174046    -0.60830
H2109       H  0.68228044  0.64161528  0.53582095     0.16100
O2110       O  0.71162334  0.62386924  0.58049131    -0.60930
H2111       H  0.70734476  0.64222933  0.59082059     0.43100
H2112       H  0.76208999  0.67375613  0.47232916     0.43050
C2113       C  0.70205757  0.25884264  0.12530927    -0.06010
C2114       C  0.73033616  0.26677421  0.13236401    -0.33440
C2115       C  0.75299660  0.24765654  0.12801894     0.35810
C2116       C  0.74752322  0.21979544  0.11728682    -0.06370
C2117       C  0.71961766  0.21202292  0.10921876    -0.33340
C2118       C  0.69695156  0.23144247  0.11274554     0.35720
H2119       H  0.73498703  0.28780908  0.14164482     0.16090
O2120       O  0.77996057  0.25548154  0.13686143    -0.60830
H2121       H  0.71523389  0.19040633  0.10121185     0.16100
O2122       O  0.66997202  0.22329942  0.10419680    -0.60930
H2123       H  0.66361982  0.20862821  0.11860533     0.43100
H2124       H  0.78946802  0.26326127  0.11906643     0.43050
C2125       C  0.74567603  0.14258274  0.05131106    -0.06010
C2126       C  0.72194260  0.12383422  0.05219805    -0.33440
C2127       C  0.70399271  0.12037329  0.02787423     0.35810
C2128       C  0.70916943  0.13622391  0.00201859    -0.06370
C2129       C  0.73200843  0.15603910  0.00160633    -0.33340
C2130       C  0.75032255  0.15906261  0.02569395     0.35720
H2131       H  0.71763348  0.11120175  0.07162952     0.16090
O2132       O  0.68152674  0.10132037  0.02966719    -0.60830
H2133       H  0.73624583  0.16874699  0.98216080     0.16100
O2134       O  0.77274209  0.17817366  0.02379520    -0.60930
H2135       H  0.78803587  0.16769359  0.01302401     0.43100
H2136       H  0.66494834  0.11300323  0.03629905     0.43050
C2137       C  0.74132006  0.04740663  0.13057647    -0.06010
C2138       C  0.73682257  0.03614360  0.15887776    -0.33440
C2139       C  0.71465742  0.01648069  0.16430210     0.35810
C2140       C  0.69611736  0.00868491  0.14150515    -0.06370
C2141       C  0.70001471  0.02073678  0.11357122    -0.33340
C2142       C  0.72250195  0.03974998  0.10788749     0.35720
H2143       H  0.75098486  0.04196797  0.17669355     0.16090
O2144       O  0.71103353  0.00537129  0.19190836    -0.60830
H2145       H  0.68621285  0.01459737  0.09559666     0.16100
O2146       O  0.72632465  0.05010466  0.07996364    -0.60930
H2147       H  0.70865378  0.06093825  0.07534786     0.43100
H2148       H  0.72480002  0.98918450  0.19315760     0.43050
C2149       C  0.13905439  0.54287520  0.37307545    -0.06010
C2150       C  0.11649065  0.52256879  0.37254309    -0.33440
C2151       C  0.12228283  0.49272464  0.37245863     0.35810
C2152       C  0.15086107  0.48329794  0.37191318    -0.06370
C2153       C  0.17287678  0.50378567  0.37428242    -0.33340
C2154       C  0.16722149  0.53310841  0.37575503     0.35720
H2155       H  0.09470063  0.52976914  0.36926216     0.16090
O2156       O  0.10023980  0.47331380  0.36980331    -0.60830
H2157       H  0.19494982  0.49718028  0.37388638     0.16100
O2158       O  0.18967398  0.55227824  0.37534954    -0.60930
H2159       H  0.19961896  0.54957948  0.39427405     0.43100
H2160       H  0.09381288  0.46945243  0.39016421     0.43050
C2161       C  0.21733711  0.62629826  0.37167799    -0.06010
C2162       C  0.24053514  0.64099326  0.35920176    -0.33440
C2163       C  0.26735319  0.64039644  0.37238330     0.35810
C2164       C  0.27176075  0.62299460  0.39729681    -0.06370
C2165       C  0.24765040  0.61116178  0.41164717    -0.33340
C2166       C  0.22031876  0.61357943  0.39935410     0.35720
H2167       H  0.23794013  0.65267159  0.33885940     0.16090
O2168       O  0.28952104  0.65484962  0.35915366    -0.60830
H2169       H  0.25021985  0.59846574  0.43134285     0.16100
O2170       O  0.19710578  0.60198861  0.41360732    -0.60930
H2171       H  0.18903874  0.61807574  0.42538559     0.43100
H2172       H  0.29071700  0.67363060  0.36956319     0.43050
C2173       C  0.25154541  0.64951698  0.21564610    -0.06010
C2174       C  0.22452514  0.66024609  0.20858268    -0.33440
C2175       C  0.20250979  0.66074235  0.22952815     0.35810
C2176       C  0.20800432  0.65197213  0.25844291    -0.06370
C2177       C  0.23498401  0.64112326  0.26550484    -0.33340
C2178       C  0.25630722  0.63890654  0.24407035     0.35720
H2179       H  0.22039086  0.66788874  0.18684730     0.16090
O2180       O  0.17575844  0.66974721  0.22155053    -0.60830
H2181       H  0.23890940  0.63250692  0.28715980     0.16100
O2182       O  0.28103037  0.62462634  0.25062770    -0.60930
H2183       H  0.27719518  0.60410170  0.24575102     0.43100
H2184       H  0.16607508  0.65229907  0.21371342     0.43050
C2185       C  0.09779585  0.55134025  0.26199433    -0.06010
C2186       C  0.10617442  0.55703594  0.23293987    -0.33440
C2187       C  0.10411725  0.53585300  0.21147024     0.35810
C2188       C  0.09310162  0.50858784  0.21877678    -0.06370
C2189       C  0.08116537  0.50405326  0.24668785    -0.33340
C2190       C  0.08383620  0.52514422  0.26853080     0.35720
H2191       H  0.11602683  0.57742594  0.22705378     0.16090
O2192       O  0.11471024  0.54137493  0.18391985    -0.60830
H2193       H  0.07181381  0.48340448  0.25228226     0.16100
O2194       O  0.07425018  0.51925952  0.29635599    -0.60930
H2195       H  0.09020733  0.50892453  0.30594310     0.43100
H2196       H  0.09963480  0.55269455  0.17402087     0.43050
C2197       C  0.02843759  0.62871444  0.27041467    -0.06010
C2198       C  0.01616356  0.65186310  0.25550561    -0.33440
C2199       C  0.99818776  0.64694556  0.23189163     0.35810
C2200       C  0.99157641  0.61849989  0.22335594    -0.06370
C2201       C  0.00172804  0.59524004  0.23963596    -0.33340
C2202       C  0.02028716  0.60017637  0.26308613     0.35720
H2203       H  0.02119425  0.67391277  0.26142899     0.16090
O2204       O  0.98765560  0.67013691  0.21679535    -0.60830
H2205       H  0.99616506  0.57332802  0.23348581     0.16100
O2206       O  0.03072386  0.57699629  0.27820744    -0.60930
H2207       H  0.01842989  0.57544384  0.29593055     0.43100
H2208       H  0.97060677  0.67651444  0.22809728     0.43050
C2209       C  0.11340544  0.75398044  0.21715960    -0.06010
C2210       C  0.08931043  0.73877911  0.22672130    -0.33440
C2211       C  0.09245916  0.71502167  0.24521579     0.35810
C2212       C  0.11994274  0.70667148  0.25471433    -0.06370
C2213       C  0.14390007  0.72255274  0.24573112    -0.33340
C2214       C  0.14086141  0.74563151  0.22653229     0.35720
H2215       H  0.06817202  0.74493922  0.21942788     0.16090
O2216       O  0.06845442  0.70094670  0.25499086    -0.60830
H2217       H  0.16498992  0.71717049  0.25378506     0.16100
O2218       O  0.16481777  0.76042066  0.21747768    -0.60930
H2219       H  0.17311430  0.74863465  0.20136226     0.43100
H2220       H  0.06174378  0.71226381  0.27218746     0.43050
C2221       C  0.12988743  0.75873736  0.05632921    -0.06010
C2222       C  0.15466578  0.74944969  0.04163709    -0.33440
C2223       C  0.15333401  0.72700498  0.02087860     0.35810
C2224       C  0.12677869  0.71379363  0.01415088    -0.06370
C2225       C  0.10217914  0.72297475  0.02919575    -0.33340
C2226       C  0.10350398  0.74524641  0.04983098     0.35720
H2227       H  0.17513715  0.75938485  0.04648791     0.16090
O2228       O  0.17810154  0.71834470  0.00722691    -0.60830
H2229       H  0.08150330  0.71352354  0.02430922     0.16100
O2230       O  0.07855051  0.75426826  0.06284299    -0.60930
H2231       H  0.07110786  0.76961132  0.04986989     0.43100
H2232       H  0.18560964  0.70250944  0.01952710     0.43050
C2233       C  0.25788792  0.71707761  0.13378655    -0.06010
C2234       C  0.26504023  0.74624894  0.12949345    -0.33440
C2235       C  0.24382464  0.76667592  0.12315893     0.35810
C2236       C  0.21484859  0.75817494  0.12187970    -0.06370
C2237       C  0.20793086  0.72890727  0.12531293    -0.33340
C2238       C  0.22907467  0.70838694  0.13138056     0.35720
H2239       H  0.28719730  0.75315754  0.13064181     0.16090
O2240       O  0.25153332  0.79501505  0.11967427    -0.60830
H2241       H  0.18577115  0.72201398  0.12407193     0.16100
O2242       O  0.22179376  0.67978086  0.13489057    -0.60930
H2243       H  0.20174927  0.67881610  0.14214627     0.43100
H2244       H  0.25624785  0.79702745  0.09856042     0.43050
C2245       C  0.03710414  0.76268284  0.12091982    -0.06010
C2246       C  0.01071671  0.76600629  0.10673641    -0.33440
C2247       C  0.99056110  0.74348781  0.10629038     0.35810
C2248       C  0.99702534  0.71677832  0.11946534    -0.06370
C2249       C  0.02413747  0.71317929  0.13223607    -0.33340
C2250       C  0.04391298  0.73584574  0.13324953     0.35720
H2251       H  0.00531833  0.78644144  0.09675766     0.16090
O2252       O  0.96453102  0.74808535  0.09339413    -0.60830
H2253       H  0.02995199  0.69284057  0.14216637     0.16100
O2254       O  0.07026017  0.73122460  0.14546137    -0.60930
H2255       H  0.06693729  0.73167261  0.16692557     0.43100
H2256       H  0.95245111  0.75699012  0.10890373     0.43050
C2257       C  0.61484487  0.23620077  0.36433744    -0.06010
C2258       C  0.61476917  0.24211450  0.39466659    -0.33440
C2259       C  0.60826029  0.27004963  0.40530081     0.35810
C2260       C  0.60297713  0.29274830  0.38552087    -0.06370
C2261       C  0.60471446  0.28694667  0.35546323    -0.33340
C2262       C  0.61003866  0.25922693  0.34477139     0.35720
H2263       H  0.61847018  0.22485098  0.41011131     0.16090
O2264       O  0.60618475  0.27467885  0.43492948    -0.60830
H2265       H  0.59983958  0.30354712  0.33984265     0.16100
O2266       O  0.60889174  0.25456375  0.31501658    -0.60930
H2267       H  0.62341317  0.26753199  0.30614597     0.43100
H2268       H  0.62511335  0.28249383  0.44075420     0.43050
C2269       C  0.53260606  0.15200070  0.36809076    -0.06010
C2270       C  0.50996920  0.15002041  0.34814910    -0.33440
C2271       C  0.48178215  0.15442608  0.35690911     0.35810
C2272       C  0.47535030  0.16165685  0.38625990    -0.06370
C2273       C  0.49789508  0.16351799  0.40659968    -0.33340
C2274       C  0.52644452  0.15803351  0.39775581     0.35720
H2275       H  0.51415441  0.14522656  0.32523865     0.16090
O2276       O  0.46082197  0.15370089  0.33593931    -0.60830
H2277       H  0.49338434  0.16927897  0.42918342     0.16100
O2278       O  0.54810649  0.16009816  0.41778825    -0.60930
H2279       H  0.55007572  0.14039379  0.42591726     0.43100
H2280       H  0.45671121  0.13293201  0.33266845     0.43050
C2281       C  0.65586235  0.21147167  0.25681753    -0.06010
C2282       C  0.64567022  0.20469896  0.22875821    -0.33440
C2283       C  0.64415233  0.22564169  0.20708988     0.35810
C2284       C  0.65270278  0.25426251  0.21319560    -0.06370
C2285       C  0.66655265  0.26016863  0.23983315    -0.33340
C2286       C  0.66822244  0.23890948  0.26171905     0.35720
H2287       H  0.63717546  0.18341803  0.22395280     0.16090
O2288       O  0.63251569  0.21819519  0.18057086    -0.60830
H2289       H  0.67455058  0.28164986  0.24445236     0.16100
O2290       O  0.68140022  0.24518335  0.28784457    -0.60930
H2291       H  0.67148660  0.26228698  0.29607372     0.43100
H2292       H  0.64880431  0.21082137  0.16876717     0.43050
C2293       C  0.70591364  0.12400695  0.26603862    -0.06010
C2294       C  0.73489997  0.12953279  0.27213142    -0.33440
C2295       C  0.75603399  0.12485992  0.25076413     0.35810
C2296       C  0.74824302  0.11496229  0.22273792    -0.06370
C2297       C  0.71952495  0.10857334  0.21687363    -0.33340
C2298       C  0.69843784  0.11273848  0.23828675     0.35720
H2299       H  0.74120175  0.13773368  0.29342545     0.16090
O2300       O  0.78384362  0.13232440  0.25668972    -0.60830
H2301       H  0.71329395  0.10137878  0.19517850     0.16100
O2302       O  0.67051156  0.10655223  0.23145968    -0.60930
H2303       H  0.66242392  0.12495676  0.22426453     0.43100
H2304       H  0.79277041  0.11449491  0.26429938     0.43050
C2305       C  0.54281080  0.11737013  0.26162632    -0.06010
C2306       C  0.54336947  0.13584451  0.23714560    -0.33440
C2307       C  0.52098841  0.13609172  0.21668624     0.35810
C2308       C  0.49730652  0.11749427  0.21994547    -0.06370
C2309       C  0.49731531  0.09810659  0.24372642    -0.33340
C2310       C  0.51935843  0.09835614  0.26469492     0.35720
H2311       H  0.56109150  0.15067247  0.23399555     0.16090
O2312       O  0.52280138  0.15439364  0.19330627    -0.60830
H2313       H  0.47973829  0.08306156  0.24656828     0.16100
O2314       O  0.51788826  0.07958924  0.28781670    -0.60930
H2315       H  0.50587667  0.08945212  0.30276467     0.43100
H2316       H  0.53237132  0.14302533  0.17763032     0.43050
C2317       C  0.63030081  0.03971100  0.27338820    -0.06010
C2318       C  0.64675311  0.01446881  0.27438920    -0.33440
C2319       C  0.64504687  0.99386847  0.25195550     0.35810
C2320       C  0.62696443  0.99858926  0.22778374    -0.06370
C2321       C  0.61105403  0.02420735  0.22664080    -0.33340
C2322       C  0.61245616  0.04452031  0.24913683     0.35720
H2323       H  0.66061416  0.01039616  0.29287534     0.16090
O2324       O  0.66088496  0.96916273  0.25414085    -0.60830
H2325       H  0.59729873  0.02869837  0.20817570     0.16100
O2326       O  0.59699914  0.06947264  0.24658699    -0.60930
H2327       H  0.57704855  0.06401769  0.25171159     0.43100
H2328       H  0.65004105  0.95688398  0.26807776     0.43050
C2329       C  0.13500853  0.22431627  0.39472874    -0.06010
C2330       C  0.12644507  0.24841313  0.41107654    -0.33440
C2331       C  0.13324270  0.27624965  0.40197661     0.35810
C2332       C  0.14899364  0.28056608  0.37590090    -0.06370
C2333       C  0.15543081  0.25640464  0.35813651    -0.33340
C2334       C  0.14841133  0.22831553  0.36741158     0.35720
H2335       H  0.11579214  0.24557110  0.43203332     0.16090
O2336       O  0.12559183  0.29897166  0.41962611    -0.60830
H2337       H  0.16760340  0.25906976  0.33804608     0.16100
O2338       O  0.15696673  0.20504530  0.35097565    -0.60930
H2339       H  0.14036790  0.20032928  0.33836367     0.43100
H2340       H  0.13971562  0.29906197  0.43579889     0.43050
C2341       C  0.21462660  0.14364860  0.39205230    -0.06010
C2342       C  0.22144150  0.17145276  0.38220717    -0.33440
C2343       C  0.24973158  0.17907290  0.37528236     0.35810
C2344       C  0.27210973  0.15901129  0.37934368    -0.06370
C2345       C  0.26498879  0.13058714  0.38723024    -0.33340
C2346       C  0.23646089  0.12277811  0.39330121     0.35720
H2347       H  0.20507712  0.18795955  0.38193739     0.16090
O2348       O  0.25553018  0.20713700  0.36779946    -0.60830
H2349       H  0.28173317  0.11477195  0.39023662     0.16100
O2350       O  0.23048864  0.09538526  0.40294231    -0.60930
H2351       H  0.23669038  0.09500303  0.42368939     0.43100
H2352       H  0.25335236  0.20783688  0.34620572     0.43050
C2353       C  0.10358409  0.21178503  0.50765384    -0.06010
C2354       C  0.12053929  0.20907079  0.53301068    -0.33440
C2355       C  0.12086802  0.23028298  0.55457468     0.35810
C2356       C  0.10377824  0.25485355  0.55141150    -0.06370
C2357       C  0.08550476  0.25695594  0.52697858    -0.33340
C2358       C  0.08548864  0.23572409  0.50503658     0.35720
H2359       H  0.13454997  0.19075938  0.53593233     0.16090
O2360       O  0.13870130  0.22705639  0.57812385    -0.60830
H2361       H  0.07192033  0.27564092  0.52424106     0.16100
O2362       O  0.06787675  0.23863974  0.48128459    -0.60930
H2363       H  0.07710080  0.25351287  0.46880223     0.43100
H2364       H  0.12680236  0.21772005  0.59348335     0.43050
C2365       C  0.21398971  0.12981708  0.50375257    -0.06010
C2366       C  0.24205589  0.13138574  0.49252032    -0.33440
C2367       C  0.26516519  0.14006642  0.51051104     0.35810
C2368       C  0.26044708  0.14799835  0.54010173    -0.06370
C2369       C  0.23217770  0.14809512  0.55060546    -0.33340
C2370       C  0.20925335  0.13914872  0.53296471     0.35720
H2371       H  0.24620487  0.12556417  0.46988151     0.16090
O2372       O  0.29253241  0.14003600  0.49936480    -0.60830
H2373       H  0.22803949  0.15247926  0.57358402     0.16100
O2374       O  0.18243435  0.13767102  0.54529857    -0.60930
H2375       H  0.17563174  0.15789931  0.54621691     0.43100
H2376       H  0.29612030  0.12005541  0.49246299     0.43050
C2377       C  0.00605822  0.14777488  0.55401833    -0.06010
C2378       C  0.00165747  0.15959298  0.52625083    -0.33440
C2379       C  0.02219613  0.15636078  0.50401463     0.35810
C2380       C  0.04773828  0.14066020  0.50919238    -0.06370
C2381       C  0.05270788  0.13012627  0.53738634    -0.33340
C2382       C  0.03238001  0.13371707  0.55970646     0.35720
H2383       H  0.98177184  0.17049137  0.52136152     0.16090
O2384       O  0.01633796  0.16767115  0.47697226    -0.60830
H2385       H  0.07221650  0.11850653  0.54213416     0.16100
O2386       O  0.03804749  0.12214866  0.58669535    -0.60930
H2387       H  0.05129339  0.13599161  0.59625969     0.43100
H2388       H  0.02393204  0.18767645  0.47760893     0.43050
C2389       C  0.12681563  0.03946093  0.50965625    -0.06010
C2390       C  0.15171634  0.02245464  0.51102985    -0.33440
C2391       C  0.15546263  0.00234749  0.53381041     0.35810
C2392       C  0.13449090  0.99973298  0.55593382    -0.06370
C2393       C  0.10990446  0.01716243  0.55449945    -0.33340
C2394       C  0.10581372  0.03647673  0.53155997     0.35720
H2395       H  0.16800349  0.02440129  0.49414270     0.16090
O2396       O  0.17959433  0.98562135  0.53431693    -0.60830
H2397       H  0.09329076  0.01551658  0.57109458     0.16100
O2398       O  0.08161374  0.05318252  0.53137191    -0.60930
H2399       H  0.06653008  0.04078456  0.52264677     0.43100
H2400       H  0.19447725  0.99793136  0.54350417     0.43050
C2401       C  0.86471721  0.79356817  0.61755968    -0.06010
C2402       C  0.87718196  0.77492320  0.59685111    -0.33440
C2403       C  0.87372558  0.74494668  0.59917827     0.35810
C2404       C  0.85804413  0.73381788  0.62283674    -0.06370
C2405       C  0.84891651  0.75226166  0.64546575    -0.33340
C2406       C  0.85256323  0.78202855  0.64315218     0.35720
H2407       H  0.88937885  0.78355310  0.57877213     0.16090
O2408       O  0.88601366  0.72662762  0.57897655    -0.60830
H2409       H  0.83746915  0.74372368  0.66425084     0.16100
O2410       O  0.84241262  0.79965861  0.66502518    -0.60930
H2411       H  0.85844636  0.80159213  0.67905493     0.43100
H2412       H  0.88408625  0.73584091  0.55949209     0.43050
C2413       C  0.78665461  0.87835780  0.63297770    -0.06010
C2414       C  0.76689161  0.90083913  0.62896276    -0.33440
C2415       C  0.73736066  0.89482065  0.62729690     0.35810
C2416       C  0.72790393  0.86599662  0.62811822    -0.06370
C2417       C  0.74767890  0.84404787  0.63370312    -0.33340
C2418       C  0.77659503  0.85005786  0.63664734     0.35720
H2419       H  0.77448244  0.92259035  0.62494279     0.16090
O2420       O  0.71843479  0.91672611  0.62216735    -0.60830
H2421       H  0.74093207  0.82172512  0.63469091     0.16100
O2422       O  0.79534553  0.82762751  0.64017082    -0.60930
H2423       H  0.79719459  0.81848300  0.62055106     0.43100
H2424       H  0.71263372  0.92372319  0.64188160     0.43050
C2425       C  0.96809388  0.89232702  0.61930888    -0.06010
C2426       C  0.98377666  0.87119090  0.63419433    -0.33440
C2427       C  0.01378762  0.87213379  0.63334534     0.35810
C2428       C  0.02754077  0.89282268  0.61551929    -0.06370
C2429       C  0.01146904  0.90811934  0.59523077    -0.33340
C2430       C  0.98253854  0.91146821  0.60008504     0.35720
H2431       H  0.97305322  0.85619189  0.64876612     0.16090
O2432       O  0.02907566  0.85531029  0.65225930    -0.60830
H2433       H  0.02185416  0.92305057  0.58027029     0.16100
O2434       O  0.96973155  0.93616246  0.58972282    -0.60930
H2435       H  0.97611064  0.93884610  0.56910985     0.43100
H2436       H  0.03590030  0.83882300  0.64022977     0.43050
C2437       C  0.87970517  0.97699931  0.63805520    -0.06010
C2438       C  0.90838215  0.98531362  0.63762105    -0.33440
C2439       C  0.91609589  0.01313509  0.62986235     0.35810
C2440       C  0.89506891  0.03476928  0.62702525    -0.06370
C2441       C  0.86611703  0.02722126  0.63056963    -0.33340
C2442       C  0.85832902  0.99813961  0.63462795     0.35720
H2443       H  0.92514859  0.96932948  0.63919794     0.16090
O2444       O  0.94445349  0.01861721  0.62431995    -0.60830
H2445       H  0.84965622  0.04348192  0.62852811     0.16100
O2446       O  0.83005541  0.99028170  0.63317733    -0.60930
H2447       H  0.82337460  0.98965507  0.65383169     0.43100
H2448       H  0.94768830  0.01249147  0.60371061     0.43050
C2449       C  0.86292641  0.11984473  0.29010716    -0.06010
C2450       C  0.86774760  0.09890899  0.26837343    -0.33440
C2451       C  0.86363287  0.10501295  0.23845874     0.35810
C2452       C  0.85439812  0.13268017  0.22962418    -0.06370
C2453       C  0.85160237  0.15420510  0.25142356    -0.33340
C2454       C  0.85595758  0.14801228  0.28129361     0.35720
H2455       H  0.87349890  0.07727884  0.27466352     0.16090
O2456       O  0.86672652  0.08314394  0.21834449    -0.60830
H2457       H  0.84427083  0.17554038  0.24548283     0.16100
O2458       O  0.85117749  0.16911986  0.30185903    -0.60930
H2459       H  0.87015863  0.17816517  0.30517291     0.43100
H2460       H  0.85073988  0.06954152  0.22234090     0.43050
C2461       C  0.78189483  0.12029065  0.37723956    -0.06010
C2462       C  0.76550361  0.14259135  0.38987835    -0.33440
C2463       C  0.73521627  0.14284335  0.38703265     0.35810
C2464       C  0.72088350  0.12023516  0.37191519    -0.06370
C2465       C  0.73767279  0.09823168  0.35953006    -0.33340
C2466       C  0.76740165  0.09842419  0.36149494     0.35720
H2467       H  0.77599900  0.15931914  0.40254886     0.16090
O2468       O  0.72005355  0.16543559  0.39870160    -0.60830
H2469       H  0.72782300  0.08071431  0.34739444     0.16100
O2470       O  0.78223870  0.07626087  0.34846885    -0.60930
H2471       H  0.78336707  0.08133709  0.32739046     0.43100
H2472       H  0.71504571  0.15936265  0.41891185     0.43050
C2473       C  0.96882809  0.10189391  0.39809535    -0.06010
C2474       C  0.98639394  0.11362616  0.37579704    -0.33440
C2475       C  0.01657449  0.11609448  0.37952281     0.35810
C2476       C  0.02965013  0.10643944  0.40566722    -0.06370
C2477       C  0.01158563  0.09534785  0.42778988    -0.33340
C2478       C  0.98193278  0.09368982  0.42448303     0.35720
H2479       H  0.97684688  0.12048374  0.35541438     0.16090
O2480       O  0.03288925  0.12793779  0.35757157    -0.60830
H2481       H  0.02028752  0.08873596  0.44866675     0.16100
O2482       O  0.96567090  0.08460999  0.44785756    -0.60930
H2483       H  0.96084250  0.10242306  0.45892430     0.43100
H2484       H  0.03907261  0.11135888  0.34530625     0.43050
C2485       C  0.88132759  0.12445849  0.47740605    -0.06010
C2486       C  0.87159551  0.10386557  0.49783840    -0.33440
C2487       C  0.87802989  0.10639292  0.52779230     0.35810
C2488       C  0.89423702  0.12993313  0.53796597    -0.06370
C2489       C  0.90226227  0.15160936  0.51792669    -0.33340
C2490       C  0.89610184  0.14890580  0.48783056     0.35720
H2491       H  0.86094393  0.08446516  0.49015802     0.16090
O2492       O  0.87038855  0.08457318  0.54651100    -0.60830
H2493       H  0.91542947  0.16950987  0.52524177     0.16100
O2494       O  0.90751812  0.16845067  0.46850417    -0.60930
H2495       H  0.89233738  0.18306588  0.46572755     0.43100
H2496       H  0.85174457  0.09056236  0.55501539     0.43050
C2497       C  0.87021848  0.00344541  0.47158604    -0.06010
C2498       C  0.87459707  0.01147490  0.50090197    -0.33440
C2499       C  0.86746472  0.99274669  0.52373182     0.35810
C2500       C  0.85631203  0.96498853  0.51758812    -0.06370
C2501       C  0.84873315  0.95824563  0.48868607    -0.33340
C2502       C  0.85557290  0.97726222  0.46569360     0.35720
H2503       H  0.88495069  0.03178270  0.50619948     0.16090
O2504       O  0.87526738  0.00013192  0.55175589    -0.60830
H2505       H  0.84050641  0.93696741  0.48349110     0.16100
O2506       O  0.84949522  0.96909646  0.43749261    -0.60930
H2507       H  0.86620601  0.95758869  0.43089775     0.43100
H2508       H  0.85768423  0.00802492  0.56097827     0.43050
C2509       C  0.13178576  0.86226504  0.23631987    -0.06010
C2510       C  0.11109820  0.88331349  0.24317955    -0.33440
C2511       C  0.10634091  0.89271288  0.27228931     0.35810
C2512       C  0.12234404  0.88123749  0.29588085    -0.06370
C2513       C  0.14444431  0.86182328  0.28879359    -0.33340
C2514       C  0.14910596  0.85225421  0.25966226     0.35720
H2515       H  0.09736925  0.89154074  0.22609869     0.16090
O2516       O  0.08467975  0.91198813  0.27751887    -0.60830
H2517       H  0.15705267  0.85243728  0.30615732     0.16100
O2518       O  0.17011070  0.83221659  0.25456711    -0.60930
H2519       H  0.16147071  0.81339866  0.26006680     0.43100
H2520       H  0.09411434  0.93118002  0.27800420     0.43050
C2521       C  0.10842415  0.78805076  0.37018842    -0.06010
C2522       C  0.10780035  0.77737699  0.34163945    -0.33440
C2523       C  0.10704939  0.74825354  0.33611923     0.35810
C2524       C  0.10762150  0.72838655  0.35935711    -0.06370
C2525       C  0.10947786  0.73866638  0.38831208    -0.33340
C2526       C  0.10951317  0.76859771  0.39389532     0.35720
H2527       H  0.10736963  0.79169195  0.32289308     0.16090
O2528       O  0.10556052  0.73957660  0.30750145    -0.60830
H2529       H  0.11007512  0.72363769  0.40642141     0.16100
O2530       O  0.10923038  0.77842599  0.42227018    -0.60930
H2531       H  0.12965657  0.77995395  0.42786758     0.43100
H2532       H  0.12334583  0.74697605  0.29814545     0.43050
C2533       C  0.12631887  0.96843351  0.38563614    -0.06010
C2534       C  0.10791458  0.99116270  0.37800187    -0.33440
C2535       C  0.11408038  0.01979484  0.38586333     0.35810
C2536       C  0.13948023  0.02652485  0.40112185    -0.06370
C2537       C  0.15925927  0.00424172  0.40606702    -0.33340
C2538       C  0.15288267  0.97547705  0.39851464     0.35720
H2539       H  0.08760406  0.98662675  0.36757070     0.16090
O2540       O  0.09460767  0.04088371  0.37928599    -0.60830
H2541       H  0.17895740  0.00874939  0.41766036     0.16100
O2542       O  0.17190055  0.95428981  0.40590963    -0.60930
H2543       H  0.18389726  0.95137579  0.38815136     0.43100
H2544       H  0.07900016  0.03874304  0.39397033     0.43050
C2545       C  0.01631296  0.97902643  0.39284563    -0.06010
C2546       C  0.00679930  0.99367651  0.41811205    -0.33440
C2547       C  0.98064254  0.00850959  0.41813655     0.35810
C2548       C  0.96395369  0.00863605  0.39260722    -0.06370
C2549       C  0.97546496  0.99762802  0.36653280    -0.33340
C2550       C  0.00150770  0.98297513  0.36638629     0.35720
H2551       H  0.01798687  0.99116815  0.43868056     0.16090
O2552       O  0.96982439  0.01937163  0.44395179    -0.60830
H2553       H  0.96379731  0.99945181  0.34638376     0.16100
O2554       O  0.01175384  0.97166715  0.34053522    -0.60930
H2555       H  0.99850461  0.95569879  0.33539977     0.43100
H2556       H  0.98488166  0.03227211  0.45194120     0.43050
C2557       C  0.11005052  0.89398551  0.48389533    -0.06010
C2558       C  0.08707101  0.88387898  0.50093325    -0.33440
C2559       C  0.08813947  0.88516625  0.53152840     0.35810
C2560       C  0.11286927  0.89566401  0.54527658    -0.06370
C2561       C  0.13679197  0.90344629  0.52815626    -0.33340
C2562       C  0.13536594  0.90297699  0.49754537     0.35720
H2563       H  0.06782649  0.87618625  0.49044673     0.16090
O2564       O  0.06425765  0.87826564  0.54768265    -0.60830
H2565       H  0.15573055  0.91231382  0.53848239     0.16100
O2566       O  0.15798009  0.91316835  0.48126621    -0.60930
H2567       H  0.16976162  0.89595311  0.47671642     0.43100
H2568       H  0.06693064  0.85785068  0.55345513     0.43050
C2569       C  0.99824787  0.90172316  0.46738040    -0.06010
C2570       C  0.00108910  0.88398900  0.49209503    -0.33440
C2571       C  0.97977667  0.88387335  0.51407545     0.35810
C2572       C  0.95530943  0.90124494  0.51086946    -0.06370
C2573       C  0.95302134  0.91940380  0.48672654    -0.33340
C2574       C  0.97432425  0.92006954  0.46533830     0.35720
H2575       H  0.01886045  0.86920312  0.49366256     0.16090
O2576       O  0.98171907  0.86505908  0.53713273    -0.60830
H2577       H  0.93444294  0.93315314  0.48431677     0.16100
O2578       O  0.97115481  0.93819339  0.44187870    -0.60930
H2579       H  0.97130222  0.95792010  0.45032905     0.43100
H2580       H  0.99895895  0.87108972  0.54816719     0.43050
C2581       C  0.75213920  0.86070439  0.46014288    -0.06010
C2582       C  0.77904139  0.86716921  0.44768717    -0.33440
C2583       C  0.80365379  0.86719118  0.46479796     0.35810
C2584       C  0.80135582  0.86045498  0.49461805    -0.06370
C2585       C  0.77451324  0.85255803  0.50654546    -0.33340
C2586       C  0.75001381  0.85286112  0.48961783     0.35720
H2587       H  0.78100557  0.87243258  0.42463509     0.16090
O2588       O  0.82955598  0.87408267  0.45231052    -0.60830
H2589       H  0.77206468  0.84721492  0.52953031     0.16100
O2590       O  0.72398804  0.84722402  0.50253302    -0.60930
H2591       H  0.72242876  0.82588607  0.50307340     0.43100
H2592       H  0.82943862  0.89536985  0.45019178     0.43050
C2593       C  0.63258876  0.87188613  0.53846463    -0.06010
C2594       C  0.65632815  0.88740458  0.52830547    -0.33440
C2595       C  0.65852888  0.89570479  0.49879383     0.35810
C2596       C  0.63740030  0.88714263  0.47812650    -0.06370
C2597       C  0.61258150  0.87352392  0.48887713    -0.33340
C2598       C  0.61004695  0.86602346  0.51874707     0.35720
H2599       H  0.67384688  0.89210846  0.54306331     0.16090
O2600       O  0.68257065  0.91051302  0.49011689    -0.60830
H2601       H  0.59594435  0.86683383  0.47384321     0.16100
O2602       O  0.58623550  0.85122543  0.52808743    -0.60930
H2603       H  0.58777053  0.83183669  0.51897901     0.43100
H2604       H  0.67684023  0.93109629  0.49004410     0.43050
C2605       C  0.63899331  0.78948969  0.39413927    -0.06010
C2606       C  0.61368510  0.77658071  0.40431648    -0.33440
C2607       C  0.61016025  0.74632499  0.40346746     0.35810
C2608       C  0.63275460  0.72848880  0.39349679    -0.06370
C2609       C  0.65705429  0.74161911  0.38127713    -0.33340
C2610       C  0.65956911  0.77176636  0.38020757     0.35720
H2611       H  0.59680253  0.78991814  0.41341568     0.16090
O2612       O  0.58498021  0.73424922  0.41322184    -0.60830
H2613       H  0.67452450  0.72841131  0.37320624     0.16100
O2614       O  0.68243283  0.78348111  0.36564881    -0.60930
H2615       H  0.67520635  0.78824785  0.34585977     0.43100
H2616       H  0.58129830  0.74247904  0.43297964     0.43050
C2617       C  0.62085706  0.97503710  0.38996209    -0.06010
C2618       C  0.63766622  0.99771838  0.40151048    -0.33440
C2619       C  0.63187155  0.02676314  0.39514154     0.35810
C2620       C  0.60834340  0.03407821  0.37748500    -0.06370
C2621       C  0.58985777  0.01163446  0.36837315    -0.33340
C2622       C  0.59596332  0.98244130  0.37435358     0.35720
H2623       H  0.65670721  0.99290214  0.41400538     0.16090
O2624       O  0.65004809  0.04773731  0.40546080    -0.60830
H2625       H  0.57168731  0.01648444  0.35461690     0.16100
O2626       O  0.57890393  0.96139370  0.36240979    -0.60930
H2627       H  0.56432916  0.95713950  0.37768826     0.43100
H2628       H  0.66691017  0.04727555  0.39214826     0.43050
C2629       C  0.76498594  0.94447328  0.38332623    -0.06010
C2630       C  0.76060067  0.97191697  0.39547244    -0.33440
C2631       C  0.78220856  0.99276250  0.39518419     0.35810
C2632       C  0.80935079  0.98649978  0.38272230    -0.06370
C2633       C  0.81435481  0.95850818  0.37197780    -0.33340
C2634       C  0.79252534  0.93752115  0.37236197     0.35720
H2635       H  0.73989623  0.97776958  0.40447281     0.16090
O2636       O  0.77619846  0.01940504  0.40689009    -0.60830
H2637       H  0.83500870  0.95303305  0.36263033     0.16100
O2638       O  0.79814251  0.91069116  0.36098741    -0.60930
H2639       H  0.80486284  0.89912619  0.37783691     0.43100
H2640       H  0.76618691  0.03002231  0.39115131     0.43050
C2641       C  0.62868314  0.90032448  0.29060161    -0.06010
C2642       C  0.59985070  0.90117619  0.28194551    -0.33440
C2643       C  0.59255992  0.89994020  0.25196711     0.35810
C2644       C  0.61414899  0.89598781  0.23046129    -0.06370
C2645       C  0.64241275  0.89266833  0.23973105    -0.33340
C2646       C  0.64970543  0.89627075  0.26894127     0.35720
H2647       H  0.58316272  0.90399710  0.29827629     0.16090
O2648       O  0.56462846  0.90391436  0.24392337    -0.60830
H2649       H  0.65971891  0.89043022  0.22396026     0.16100
O2650       O  0.67792546  0.89708192  0.27569435    -0.60930
H2651       H  0.68429006  0.91701909  0.27117985     0.43100
H2652       H  0.55674428  0.88420389  0.24117920     0.43050
C2653       C  0.78851627  0.64247118  0.38207622    -0.06010
C2654       C  0.78357170  0.61599174  0.39624978    -0.33440
C2655       C  0.75592871  0.60772934  0.40509660     0.35810
C2656       C  0.73240070  0.62605897  0.39988934    -0.06370
C2657       C  0.73693519  0.65091336  0.38287786    -0.33340
C2658       C  0.76459823  0.65922712  0.37409020     0.35720
H2659       H  0.80141013  0.60249112  0.40244845     0.16090
O2660       O  0.75265316  0.58273826  0.42077497    -0.60830
H2661       H  0.71924188  0.66510509  0.37792851     0.16100
O2662       O  0.76806511  0.68438360  0.35867763    -0.60930
H2663       H  0.76486397  0.70010838  0.37312182     0.43100
H2664       H  0.74769783  0.56778375  0.40603195     0.43050
C2665       C  0.78778836  0.75416593  0.39737137    -0.06010
C2666       C  0.78694985  0.76714453  0.36967408    -0.33440
C2667       C  0.76625681  0.78757817  0.36324028     0.35810
C2668       C  0.74609757  0.79540029  0.38471193    -0.06370
C2669       C  0.74478744  0.78015329  0.41121884    -0.33340
C2670       C  0.76556148  0.75945646  0.41766738     0.35720
H2671       H  0.80328448  0.76255422  0.35340072     0.16090
O2672       O  0.76734280  0.80154338  0.33680598    -0.60830
H2673       H  0.72937951  0.78617392  0.42798948     0.16100
O2674       O  0.76559793  0.74688195  0.44483247    -0.60930
H2675       H  0.75352032  0.72935790  0.44277477     0.43100
H2676       H  0.75733125  0.78852360  0.32290916     0.43050
C2677       C  0.88250189  0.79948237  0.52270825    -0.06010
C2678       C  0.85798873  0.78238889  0.51798320    -0.33440
C2679       C  0.85613599  0.76397481  0.49353573     0.35810
C2680       C  0.87933890  0.76199108  0.47389953    -0.06370
C2681       C  0.90481270  0.77683275  0.48014479    -0.33340
C2682       C  0.90654136  0.79552557  0.50429152     0.35720
H2683       H  0.83905418  0.78551270  0.53143711     0.16090
O2684       O  0.83030155  0.75158530  0.48649205    -0.60830
H2685       H  0.92280261  0.77544404  0.46509862     0.16100
O2686       O  0.93116434  0.81119910  0.50855529    -0.60930
H2687       H  0.93060676  0.82694353  0.49389072     0.43100
H2688       H  0.82441515  0.74006849  0.50375735     0.43050
C2689       C  0.86583941  0.65438680  0.47819472    -0.06010
C2690       C  0.85912821  0.67822158  0.49568053    -0.33440
C2691       C  0.85588449  0.67565675  0.52582517     0.35810
C2692       C  0.85886281  0.64859612  0.53942553    -0.06370
C2693       C  0.86786587  0.62489347  0.52232123    -0.33340
C2694       C  0.87157733  0.62775122  0.49174060     0.35720
H2695       H  0.85476423  0.69882094  0.48587829     0.16090
O2696       O  0.84733997  0.69940016  0.54159474    -0.60830
H2697       H  0.86954504  0.60372110  0.53213515     0.16100
O2698       O  0.87785118  0.60387574  0.47511157    -0.60930
H2699       H  0.89903891  0.60347423  0.47384687     0.43100
H2700       H  0.82664655  0.70166938  0.53748171     0.43050
C2701       C  0.96635201  0.64710550  0.36066063    -0.06010
C2702       C  0.98805899  0.66759847  0.35905875    -0.33440
C2703       C  0.01663449  0.65952883  0.36203931     0.35810
C2704       C  0.02390207  0.62991516  0.36418257    -0.06370
C2705       C  0.00184558  0.60930339  0.36566498    -0.33340
C2706       C  0.97316811  0.61785642  0.36474115     0.35720
H2707       H  0.98268032  0.69008052  0.35617298     0.16090
O2708       O  0.03722615  0.68076039  0.36318754    -0.60830
H2709       H  0.00678779  0.58652370  0.36695981     0.16100
O2710       O  0.95193977  0.59740760  0.36652262    -0.60930
H2711       H  0.94893421  0.59418842  0.38779811     0.43100
H2712       H  0.03519395  0.69222996  0.34500573     0.43050
C2713       C  0.95858757  0.75797106  0.38137789    -0.06010
C2714       C  0.95021937  0.78671524  0.37770797    -0.33440
C2715       C  0.97010719  0.80928351  0.37833872     0.35810
C2716       C  0.99948438  0.80358513  0.38232847    -0.06370
C2717       C  0.00802887  0.77484993  0.38694966    -0.33340
C2718       C  0.98760717  0.75223476  0.38752058     0.35720
H2719       H  0.92796586  0.79185513  0.37415620     0.16090
O2720       O  0.96059568  0.83690726  0.37389657    -0.60830
H2721       H  0.03041875  0.77000705  0.39046091     0.16100
O2722       O  0.99628816  0.72487851  0.39417268    -0.60930
H2723       H  0.99266352  0.72277910  0.41549577     0.43100
H2724       H  0.96064439  0.83948833  0.35232112     0.43050
C2725       C  0.88777016  0.63089081  0.23083299    -0.06010
C2726       C  0.86701666  0.65122709  0.23838900    -0.33440
C2727       C  0.85876440  0.65515577  0.26779773     0.35810
C2728       C  0.87179986  0.63890822  0.29044347    -0.06370
C2729       C  0.89037424  0.61650676  0.28233493    -0.33340
C2730       C  0.89822520  0.61234798  0.25283841     0.35720
H2731       H  0.85845015  0.66532750  0.22173365     0.16090
O2732       O  0.83910115  0.67617290  0.27432449    -0.60830
H2733       H  0.90064440  0.60366048  0.29902259     0.16100
O2734       O  0.91803257  0.59157624  0.24616144    -0.60930
H2735       H  0.90670238  0.57470165  0.23942411     0.43100
H2736       H  0.84948888  0.69469277  0.27172447     0.43050
C2737       C  0.86428797  0.97297460  0.13705757    -0.06010
C2738       C  0.83901129  0.98107966  0.12315551    -0.33440
C2739       C  0.83036762  0.00985870  0.12271884     0.35810
C2740       C  0.84708256  0.03107978  0.13666019    -0.06370
C2741       C  0.87420255  0.02377588  0.14708145    -0.33340
C2742       C  0.88317533  0.99481641  0.14676538     0.35720
H2743       H  0.82422406  0.96478043  0.11591074     0.16090
O2744       O  0.80380232  0.01632051  0.11208300    -0.60830
H2745       H  0.88762957  0.04014376  0.15707717     0.16100
O2746       O  0.90920874  0.98759590  0.15847805    -0.60930
H2747       H  0.90961204  0.99605204  0.17848610     0.43100
H2748       H  0.80659219  0.01875407  0.09067400     0.43050
C2749       C  0.97004525  0.88618006  0.15519949    -0.06010
C2750       C  0.99344325  0.90511127  0.15923533    -0.33440
C2751       C  0.02178485  0.89527283  0.15628015     0.35810
C2752       C  0.02699214  0.86640051  0.14859661    -0.06370
C2753       C  0.00382044  0.84818518  0.14233020    -0.33340
C2754       C  0.97559886  0.85771151  0.14558849     0.35720
H2755       H  0.98987820  0.92701852  0.16672848     0.16090
O2756       O  0.04411773  0.91356813  0.16237283    -0.60830
H2757       H  0.00759518  0.82581984  0.13656264     0.16100
O2758       O  0.95367988  0.83857880  0.14044126    -0.60930
H2759       H  0.95291545  0.82595192  0.15794957     0.43100
H2760       H  0.04762387  0.91137509  0.18366863     0.43050
C2761       C  0.88166993  0.97953932  0.24659134    -0.06010
C2762       C  0.90650168  0.98553789  0.26248575    -0.33440
C2763       C  0.90589856  0.00558768  0.28566939     0.35810
C2764       C  0.88044168  0.02070774  0.29243175    -0.06370
C2765       C  0.85665946  0.01680563  0.27398877    -0.33340
C2766       C  0.85706308  0.99623566  0.25153364     0.35720
H2767       H  0.92563382  0.97288047  0.25870393     0.16090
O2768       O  0.92939175  0.00794973  0.30324593    -0.60830
H2769       H  0.83690803  0.02833668  0.27816090     0.16100
O2770       O  0.83261243  0.99123414  0.23576067    -0.60930
H2771       H  0.83505869  0.00253756  0.21749239     0.43100
H2772       H  0.92843257  0.99055184  0.31580541     0.43050
C2773       C  0.95188456  0.88853433  0.26143187    -0.06010
C2774       C  0.97779971  0.87384556  0.26159841    -0.33440
C2775       C  0.99562128  0.87561611  0.28556571     0.35810
C2776       C  0.98726731  0.89204355  0.31041559    -0.06370
C2777       C  0.96166942  0.90775816  0.30980285    -0.33340
C2778       C  0.94397963  0.90623473  0.28525159     0.35720
H2779       H  0.98412347  0.86044534  0.24313585     0.16090
O2780       O  0.02033821  0.85968380  0.28492510    -0.60830
H2781       H  0.95504171  0.92059576  0.32852945     0.16100
O2782       O  0.91872004  0.92123252  0.28512459    -0.60930
H2783       H  0.90502291  0.90939633  0.29661938     0.43100
H2784       H  0.03472883  0.87214792  0.27506413     0.43050
C2785       C  0.85991500  0.81989576  0.27262150    -0.06010
C2786       C  0.84117175  0.79622612  0.27457383    -0.33440
C2787       C  0.84337353  0.77627071  0.29751040     0.35810
C2788       C  0.86450305  0.77981645  0.31928326    -0.06370
C2789       C  0.88173779  0.80460404  0.31861984    -0.33340
C2790       C  0.87964890  0.82450679  0.29565872     0.35720
H2791       H  0.82536593  0.79249353  0.25767724     0.16090
O2792       O  0.82480108  0.75327635  0.29840268    -0.60830
H2793       H  0.89803961  0.80787832  0.33506867     0.16100
O2794       O  0.89841356  0.84730383  0.29507704    -0.60930
H2795       H  0.89077493  0.86125951  0.30964128     0.43100
H2796       H  0.82995305  0.74102680  0.28133236     0.43050
C2797       C  0.88465709  0.78669484  0.16654827    -0.06010
C2798       C  0.88775511  0.76738889  0.18999030    -0.33440
C2799       C  0.89069918  0.73782618  0.18503263     0.35810
C2800       C  0.89096512  0.72697535  0.15623614    -0.06370
C2801       C  0.88602670  0.74592530  0.13279262    -0.33340
C2802       C  0.88269555  0.77567805  0.13782782     0.35720
H2803       H  0.88836489  0.77528662  0.21237805     0.16090
O2804       O  0.89514984  0.71983780  0.20837817    -0.60830
H2805       H  0.88692578  0.73801162  0.11042590     0.16100
O2806       O  0.87991651  0.79393930  0.11445193    -0.60930
H2807       H  0.85913013  0.79425709  0.11020163     0.43100
H2808       H  0.87591558  0.71658227  0.21707971     0.43050
C2809       C  0.77610433  0.87793502  0.25221006    -0.06010
C2810       C  0.76186139  0.85279155  0.26119695    -0.33440
C2811       C  0.73998050  0.85436793  0.28231149     0.35810
C2812       C  0.73227721  0.88139684  0.29437783    -0.06370
C2813       C  0.74541089  0.90650271  0.28361585    -0.33340
C2814       C  0.76719931  0.90493223  0.26296542     0.35720
H2815       H  0.76847738  0.83194261  0.25278700     0.16090
O2816       O  0.72707208  0.82940292  0.29163032    -0.60830
H2817       H  0.73966362  0.92760861  0.29203133     0.16100
O2818       O  0.77968088  0.93005054  0.25326891    -0.60930
H2819       H  0.79311602  0.93595765  0.26897320     0.43100
H2820       H  0.70955874  0.82751944  0.27958517     0.43050
C2821       C  0.71893289  0.90189447  0.12360487    -0.06010
C2822       C  0.74159395  0.91699761  0.11015715    -0.33440
C2823       C  0.77000271  0.91125242  0.11783763     0.35810
C2824       C  0.77587083  0.89072288  0.13946539    -0.06370
C2825       C  0.75376325  0.87315663  0.14998505    -0.33340
C2826       C  0.72544329  0.87839205  0.14212598     0.35720
H2827       H  0.73728345  0.93461594  0.09529738     0.16090
O2828       O  0.79165382  0.92688304  0.10531451    -0.60830
H2829       H  0.75816217  0.85678665  0.16625147     0.16100
O2830       O  0.70424689  0.86161689  0.15430411    -0.60930
H2831       H  0.70222272  0.86847463  0.17484659     0.43100
H2832       H  0.79899043  0.91461752  0.08909561     0.43050
C2833       C  0.78171525  0.62971995  0.88793224    -0.06010
C2834       C  0.76085876  0.61138313  0.90076564    -0.33440
C2835       C  0.73218439  0.61213610  0.89199361     0.35810
C2836       C  0.72358261  0.63206023  0.87088661    -0.06370
C2837       C  0.74332357  0.65297510  0.86111302    -0.33340
C2838       C  0.77234422  0.65168132  0.86908392     0.35720
H2839       H  0.76723876  0.59454957  0.91577740     0.16090
O2840       O  0.71328111  0.59200212  0.90261717    -0.60830
H2841       H  0.73658365  0.66921059  0.84563680     0.16100
O2842       O  0.79160479  0.66990822  0.85587051    -0.60930
H2843       H  0.79296701  0.68681890  0.86916908     0.43100
H2844       H  0.70354402  0.60157452  0.91937768     0.43050
C2845       C  0.86058338  0.61838704  0.78970833    -0.06010
C2846       C  0.84905886  0.64320285  0.77714630    -0.33440
C2847       C  0.84954062  0.64685812  0.74652433     0.35810
C2848       C  0.85965041  0.62435714  0.72819162    -0.06370
C2849       C  0.87314924  0.60070347  0.74093411    -0.33340
C2850       C  0.87524071  0.59870153  0.77146185     0.35720
H2851       H  0.83965720  0.65969302  0.79104574     0.16090
O2852       O  0.84037883  0.67238042  0.73457509    -0.60830
H2853       H  0.88187605  0.58369016  0.72722646     0.16100
O2854       O  0.89179340  0.57750698  0.78316023    -0.60930
H2855       H  0.91070369  0.58664873  0.78662237     0.43100
H2856       H  0.82205476  0.67736307  0.74442250     0.43050
C2857       C  0.96425663  0.62263259  0.89755174    -0.06010
C2858       C  0.98328539  0.60362893  0.88378410    -0.33440
C2859       C  0.01258130  0.61001603  0.88223560     0.35810
C2860       C  0.02327361  0.63585229  0.89464809    -0.06370
C2861       C  0.00364133  0.65626339  0.90550598    -0.33340
C2862       C  0.97424161  0.64983354  0.90680814     0.35720
H2863       H  0.97551783  0.58330718  0.87513076     0.16090
O2864       O  0.03099331  0.59006864  0.87030993    -0.60830
H2865       H  0.01129333  0.67603127  0.91557026     0.16100
O2866       O  0.95569632  0.66964393  0.91857132    -0.60930
H2867       H  0.94845250  0.68068930  0.90159850     0.43100
H2868       H  0.03147262  0.57385934  0.88444799     0.43050
C2869       C  0.87518714  0.62242730  0.97857416    -0.06010
C2870       C  0.85485641  0.61516477  0.00037476    -0.33440
C2871       C  0.86208101  0.61531132  0.03049648     0.35810
C2872       C  0.89051346  0.62072687  0.03919035    -0.06370
C2873       C  0.91053059  0.62854549  0.01751554    -0.33340
C2874       C  0.90294971  0.63025056  0.98782469     0.35720
H2875       H  0.83351893  0.60857274  0.99395580     0.16090
O2876       O  0.84166743  0.60835294  0.05098731    -0.60830
H2877       H  0.93244095  0.63325303  0.02356794     0.16100
O2878       O  0.92366461  0.63753372  0.96781383    -0.60930
H2879       H  0.92361922  0.65891545  0.96736296     0.43100
H2880       H  0.83306278  0.62703632  0.05690863     0.43050
C2881       C  0.85198074  0.22955450  0.13944865    -0.06010
C2882       C  0.85265987  0.25091293  0.16134308    -0.33440
C2883       C  0.85710057  0.27998761  0.15398372     0.35810
C2884       C  0.85955826  0.28803390  0.12431967    -0.06370
C2885       C  0.85987372  0.26664646  0.10261215    -0.33340
C2886       C  0.85664290  0.23761288  0.10994138     0.35720
H2887       H  0.84861993  0.24518113  0.18399694     0.16090
O2888       O  0.85655524  0.30055816  0.17565679    -0.60830
H2889       H  0.86184377  0.27256498  0.07971457     0.16100
O2890       O  0.85501916  0.21766328  0.08770149    -0.60930
H2891       H  0.87509742  0.21195050  0.08366746     0.43100
H2892       H  0.87662956  0.30216969  0.18243810     0.43050
C2893       C  0.77694218  0.37071670  0.11577425    -0.06010
C2894       C  0.75761680  0.39184399  0.12592284    -0.33440
C2895       C  0.72759108  0.38693271  0.12527053     0.35810
C2896       C  0.71635264  0.36099452  0.11337608    -0.06370
C2897       C  0.73593791  0.34018566  0.10331279    -0.33340
C2898       C  0.76561063  0.34463467  0.10476061     0.35720
H2899       H  0.76573656  0.41233541  0.13384759     0.16090
O2900       O  0.70954114  0.40771201  0.13606786    -0.60830
H2901       H  0.72830850  0.31971110  0.09483375     0.16100
O2902       O  0.78364037  0.32285990  0.09603019    -0.60930
H2903       H  0.77868015  0.31836787  0.07541281     0.43100
H2904       H  0.70459954  0.41977302  0.11892983     0.43050
C2905       C  0.88996813  0.52750623  0.14557844    -0.06010
C2906       C  0.89169313  0.50739604  0.16861364    -0.33440
C2907       C  0.88914557  0.47787621  0.16304097     0.35810
C2908       C  0.88468438  0.46833199  0.13429348    -0.06370
C2909       C  0.87955212  0.48831828  0.11201104    -0.33340
C2910       C  0.88193763  0.51783732  0.11747297     0.35720
H2911       H  0.89742472  0.51428569  0.19053698     0.16090
O2912       O  0.89373201  0.45853888  0.18519136    -0.60830
H2913       H  0.87489493  0.48106810  0.08999120     0.16100
O2914       O  0.87909227  0.53665311  0.09454685    -0.60930
H2915       H  0.85887496  0.54306026  0.09536558     0.43100
H2916       H  0.87448693  0.45446364  0.19349832     0.43050
C2917       C  0.88260796  0.46591517  0.01636936    -0.06010
C2918       C  0.86278246  0.46733263  0.99355180    -0.33440
C2919       C  0.86359373  0.48983731  0.97335115     0.35810
C2920       C  0.88504753  0.51133741  0.97529910    -0.06370
C2921       C  0.90368849  0.51101295  0.99941836    -0.33340
C2922       C  0.90245012  0.48859026  0.02001686     0.35720
H2923       H  0.84713839  0.45030227  0.99074386     0.16090
O2924       O  0.84424979  0.48951811  0.95085346    -0.60830
H2925       H  0.92023862  0.52730630  0.00154362     0.16100
O2926       O  0.92253662  0.48752467  0.04180282    -0.60930
H2927       H  0.91617309  0.50183788  0.05665087     0.43100
H2928       H  0.82789732  0.50126046  0.95794743     0.43050
C2929       C  0.96494218  0.37598302  0.13059966    -0.06010
C2930       C  0.97322120  0.39266653  0.15490872    -0.33440
C2931       C  0.00206412  0.40033433  0.15936481     0.35810
C2932       C  0.02360769  0.39143357  0.13926910    -0.06370
C2933       C  0.01557651  0.37274379  0.11637283    -0.33340
C2934       C  0.98676034  0.36499002  0.11200953     0.35720
H2935       H  0.95709063  0.40140194  0.16957400     0.16090
O2936       O  0.00855070  0.41809423  0.18252243    -0.60830
H2937       H  0.03145065  0.36533539  0.10069106     0.16100
O2938       O  0.98006982  0.34795703  0.08835522    -0.60930
H2939       H  0.97896194  0.32804938  0.09617571     0.43100
H2940       H  0.01452792  0.40497067  0.19845818     0.43050
C2941       C  0.11064347  0.38766737  0.78996613    -0.06010
C2942       C  0.13931795  0.38249643  0.78167003    -0.33440
C2943       C  0.14685572  0.37754828  0.75227297     0.35810
C2944       C  0.12571101  0.37800302  0.73050993    -0.06370
C2945       C  0.09756568  0.38550943  0.73846844    -0.33340
C2946       C  0.08991486  0.39009190  0.76778292     0.35720
H2947       H  0.15581528  0.38089605  0.79816799     0.16090
O2948       O  0.17463714  0.37086397  0.74527771    -0.60830
H2949       H  0.08076418  0.38559339  0.72218088     0.16100
O2950       O  0.06165654  0.39451899  0.77452651    -0.60930
H2951       H  0.05871304  0.41551040  0.77191089     0.43100
H2952       H  0.18347404  0.38937576  0.73911124     0.43050
C2953       C  0.11199977  0.23482551  0.87181097    -0.06010
C2954       C  0.08584014  0.24651470  0.88097798    -0.33440
C2955       C  0.08301809  0.27633027  0.88514708     0.35810
C2956       C  0.10588530  0.29500978  0.87821523    -0.06370
C2957       C  0.13270046  0.28319688  0.87153249    -0.33340
C2958       C  0.13596727  0.25323401  0.86872594     0.35720
H2959       H  0.06730034  0.23266463  0.88371834     0.16090
O2960       O  0.05762319  0.28704916  0.89540090    -0.60830
H2961       H  0.15066313  0.29725749  0.86662216     0.16100
O2962       O  0.16179327  0.24252462  0.85937618    -0.60930
H2963       H  0.17198994  0.23709080  0.87752584     0.43100
H2964       H  0.06001573  0.28866358  0.91692986     0.43050
C2965       C  0.13093440  0.53731103  0.90083436    -0.06010
C2966       C  0.10929459  0.52101364  0.91401460    -0.33440
C2967       C  0.10749405  0.49121330  0.91028844     0.35810
C2968       C  0.12641177  0.47666755  0.89088574    -0.06370
C2969       C  0.14815247  0.49301267  0.87703283    -0.33340
C2970       C  0.15092667  0.52310080  0.88254510     0.35720
H2971       H  0.09407181  0.53129315  0.92863152     0.16090
O2972       O  0.08855266  0.47619293  0.92771010    -0.60830
H2973       H  0.16323684  0.48243951  0.86247339     0.16100
O2974       O  0.17270375  0.53835732  0.86955617    -0.60930
H2975       H  0.18861194  0.53796640  0.88384563     0.43100
H2976       H  0.06973843  0.48589545  0.92593575     0.43050
C2977       C  0.00380920  0.46912243  0.89551180    -0.06010
C2978       C  0.00293505  0.48979407  0.87319901    -0.33440
C2979       C  0.98071020  0.51004395  0.87284520     0.35810
C2980       C  0.95962719  0.50903002  0.89489354    -0.06370
C2981       C  0.96226219  0.49022095  0.91848602    -0.33340
C2982       C  0.98427284  0.47039455  0.91902468     0.35720
H2983       H  0.01822612  0.48905062  0.85526723     0.16090
O2984       O  0.97822627  0.52875482  0.84978543    -0.60830
H2985       H  0.94610584  0.48968676  0.93566324     0.16100
O2986       O  0.98548069  0.45112593  0.94174492    -0.60930
H2987       H  0.99671817  0.46103175  0.95720095     0.43100
H2988       H  0.99561017  0.54107225  0.85038519     0.43050
C2989       C  0.13121942  0.38748508  0.97691364    -0.06010
C2990       C  0.11532874  0.37131918  0.99713359    -0.33440
C2991       C  0.12042779  0.37408813  0.02711234     0.35810
C2992       C  0.14152403  0.39368653  0.03705269    -0.06370
C2993       C  0.16014020  0.40642322  0.01641737    -0.33340
C2994       C  0.15508953  0.40337000  0.98638224     0.35720
H2995       H  0.09715034  0.35862682  0.98985041     0.16090
O2996       O  0.10292483  0.35961732  0.04639507    -0.60830
H2997       H  0.17682347  0.42114391  0.02347280     0.16100
O2998       O  0.17098927  0.41927996  0.96688260    -0.60930
H2999       H  0.18640251  0.40613956  0.96014045     0.43100
H3000       H  0.08455612  0.37031615  0.04644902     0.43050
C3001       C  0.97044968  0.38846425  0.02317933    -0.06010
C3002       C  0.99306375  0.40848453  0.02397132    -0.33440
C3003       C  0.01447020  0.40828919  0.00238659     0.35810
C3004       C  0.01345782  0.38799673  0.97920048    -0.06370
C3005       C  0.99278966  0.36606891  0.98020490    -0.33340
C3006       C  0.97136706  0.36615082  0.00184536     0.35720
H3007       H  0.99342890  0.42536317  0.04046206     0.16090
O3008       O  0.03536059  0.42915156  0.00326922    -0.60830
H3009       H  0.99204761  0.34991174  0.96304461     0.16100
O3010       O  0.95034888  0.34547609  0.00046059    -0.60930
H3011       H  0.95720513  0.32951993  0.01299161     0.43100
H3012       H  0.05194250  0.41982943  0.01281235     0.43050
C3013       C  0.63526269  0.39599736  0.79360600    -0.06010
C3014       C  0.61733778  0.41832814  0.78514023    -0.33440
C3015       C  0.60885460  0.42081082  0.75613799     0.35810
C3016       C  0.61953738  0.40129163  0.73465695    -0.06370
C3017       C  0.63603176  0.37768975  0.74373485    -0.33340
C3018       C  0.64340409  0.37465128  0.77328817     0.35720
H3019       H  0.61061956  0.43450779  0.80095879     0.16090
O3020       O  0.59233695  0.44409455  0.74880800    -0.60830
H3021       H  0.64426917  0.36240101  0.72779679     0.16100
O3022       O  0.66008755  0.35190911  0.78174196    -0.60930
H3023       H  0.64642058  0.33704462  0.78883751     0.43100
H3024       H  0.57228747  0.43714545  0.75032351     0.43050
C3025       C  0.76036365  0.45860611  0.86396216    -0.06010
C3026       C  0.78665617  0.44722399  0.87321904    -0.33440
C3027       C  0.81007007  0.46526770  0.87864443     0.35810
C3028       C  0.80702769  0.49518936  0.87564808    -0.06370
C3029       C  0.78090906  0.50652297  0.86567390    -0.33340
C3030       C  0.75764992  0.48836301  0.85952312     0.35720
H3031       H  0.78893972  0.42419917  0.87655154     0.16090
O3032       O  0.83557361  0.45356984  0.88733931    -0.60830
H3033       H  0.77855694  0.52956285  0.86250795     0.16100
O3034       O  0.73238928  0.49972644  0.84960101    -0.60930
H3035       H  0.72615753  0.51386280  0.86468845     0.43100
H3036       H  0.83285876  0.44867794  0.90831537     0.43050
C3037       C  0.64475426  0.48195520  0.88378058    -0.06010
C3038       C  0.61864691  0.49184941  0.87233303    -0.33440
C3039       C  0.61416913  0.52145694  0.86667149     0.35810
C3040       C  0.63607048  0.54196161  0.87194532    -0.06370
C3041       C  0.66127868  0.53237975  0.88526126    -0.33340
C3042       C  0.66537376  0.50302532  0.89192238     0.35720
H3043       H  0.60234254  0.47645024  0.86588190     0.16090
O3044       O  0.58942647  0.52963070  0.85303957    -0.60830
H3045       H  0.67851162  0.54753060  0.88926769     0.16100
O3046       O  0.69045869  0.49503289  0.90501838    -0.60930
H3047       H  0.68604089  0.49446481  0.92629231     0.43100
H3048       H  0.57659037  0.53627836  0.86905531     0.43050
C3049       C  0.62341237  0.37084512  0.97436080    -0.06010
C3050       C  0.64022716  0.38175141  0.99708022    -0.33440
C3051       C  0.63180535  0.37794419  0.02621395     0.35810
C3052       C  0.60618561  0.36289302  0.03272820    -0.06370
C3053       C  0.58810019  0.35452817  0.00964478    -0.33340
C3054       C  0.59666532  0.35838422  0.98051517     0.35720
H3055       H  0.66065771  0.39189725  0.99227359     0.16090
O3056       O  0.64938573  0.38783727  0.04810682    -0.60830
H3057       H  0.56843027  0.34284044  0.01406090     0.16100
O3058       O  0.57988817  0.34781338  0.95833746    -0.60930
H3059       H  0.56815276  0.36441466  0.95197137     0.43100
H3060       H  0.66573584  0.37423555  0.04853221     0.43050
C3061       C  0.74775283  0.37860966  0.96830501    -0.06010
C3062       C  0.77372302  0.39348281  0.96502062    -0.33440
C3063       C  0.79607702  0.38907143  0.98440794     0.35810
C3064       C  0.79252171  0.37003402  0.00816249    -0.06370
C3065       C  0.76586172  0.35666346  0.01275046    -0.33340
C3066       C  0.74337616  0.36102412  0.99306868     0.35720
H3067       H  0.77748548  0.40705963  0.94606518     0.16090
O3068       O  0.82192703  0.40207965  0.97874068    -0.60830
H3069       H  0.76267002  0.34226043  0.03110774     0.16100
O3070       O  0.71828378  0.34601103  0.99680881    -0.60930
H3071       H  0.70615391  0.35858557  0.00933243     0.43100
H3072       H  0.83237509  0.38847010  0.96573907     0.43050
C3073       C  0.63213730  0.29200826  0.88176420    -0.06010
C3074       C  0.65222002  0.27101742  0.87314887    -0.33440
C3075       C  0.64755734  0.24162848  0.87835831     0.35810
C3076       C  0.62224498  0.23221350  0.89255444    -0.06370
C3077       C  0.60133287  0.25298055  0.89966483    -0.33340
C3078       C  0.60601365  0.28255730  0.89423668     0.35720
H3079       H  0.67249383  0.27745676  0.86349502     0.16090
O3080       O  0.66901161  0.22262435  0.87137464    -0.60830
H3081       H  0.58169641  0.24643222  0.91052809     0.16100
O3082       O  0.58568032  0.30205425  0.90303564    -0.60930
H3083       H  0.57324630  0.30471710  0.88571723     0.43100
H3084       H  0.66556764  0.21710638  0.85066997     0.43050
C3085       C  0.96879721  0.15268099  0.88318602    -0.06010
C3086       C  0.98094644  0.12516319  0.87970098    -0.33440
C3087       C  0.01059791  0.12201053  0.87439575     0.35810
C3088       C  0.02853701  0.14659032  0.87264684    -0.06370
C3089       C  0.01662924  0.17371636  0.87858299    -0.33340
C3090       C  0.98727257  0.17677932  0.88419580     0.35720
H3091       H  0.96720554  0.10630485  0.87883050     0.16090
O3092       O  0.02132859  0.09510927  0.86836706    -0.60830
H3093       H  0.02988336  0.19289555  0.87712100     0.16100
O3094       O  0.97662773  0.20379988  0.88922020    -0.60930
H3095       H  0.97702452  0.20631037  0.91081224     0.43100
H3096       H  0.01744445  0.09175520  0.84728027     0.43050
C3097       C  0.86708953  0.12623474  0.98108209    -0.06010
C3098       C  0.88227656  0.14032073  0.00344893    -0.33440
C3099       C  0.87575419  0.13539085  0.03302080     0.35810
C3100       C  0.85310434  0.11653955  0.04070699    -0.06370
C3101       C  0.84026094  0.09999668  0.01831192    -0.33340
C3102       C  0.84717768  0.10467775  0.98870613     0.35720
H3103       H  0.89756450  0.15711760  0.99791657     0.16090
O3104       O  0.88958389  0.15152415  0.05387926    -0.60830
H3105       H  0.82301894  0.08514435  0.02349091     0.16100
O3106       O  0.83152004  0.09096356  0.96744583    -0.60930
H3107       H  0.84310188  0.07395486  0.96168479     0.43100
H3108       H  0.90571560  0.13932700  0.06041262     0.43050
C3109       C  0.87495944  0.25677477  0.96636225    -0.06010
C3110       C  0.85563551  0.27935936  0.96239876    -0.33440
C3111       C  0.85824543  0.30474941  0.97829468     0.35810
C3112       C  0.88011669  0.30765322  0.99908733    -0.06370
C3113       C  0.89954538  0.28505029  0.00344366    -0.33340
C3114       C  0.89739997  0.25971219  0.98659476     0.35720
H3115       H  0.83853522  0.27751094  0.94653670     0.16090
O3116       O  0.83906680  0.32661246  0.97360971    -0.60830
H3117       H  0.91635506  0.28718631  0.01957375     0.16100
O3118       O  0.91696910  0.23804862  0.99016317    -0.60930
H3119       H  0.90828599  0.22490808  0.00486276     0.43100
H3120       H  0.82045725  0.31938312  0.98122288     0.43050
C3121       C  0.94465522  0.27208112  0.89191772    -0.06010
C3122       C  0.96909047  0.26912276  0.87417228    -0.33440
C3123       C  0.99062646  0.29036402  0.87417796     0.35810
C3124       C  0.98770004  0.31490586  0.89228931    -0.06370
C3125       C  0.96376281  0.31713169  0.91090641    -0.33340
C3126       C  0.94233000  0.29605856  0.91075435     0.35720
H3127       H  0.97050266  0.25144027  0.85863543     0.16090
O3128       O  0.01239509  0.28886643  0.85385260    -0.60830
H3129       H  0.96088062  0.33604199  0.92460548     0.16100
O3130       O  0.91886715  0.29938476  0.92866514    -0.60930
H3131       H  0.90636195  0.31336643  0.91850768     0.43100
H3132       H  0.02120831  0.26956709  0.85617634     0.43050
C3133       C  0.74471256  0.29444246  0.89924779    -0.06010
C3134       C  0.73909363  0.26475853  0.89848560    -0.33440
C3135       C  0.76162303  0.24489260  0.89536406     0.35810
C3136       C  0.79036943  0.25457874  0.89349304    -0.06370
C3137       C  0.79563837  0.28444013  0.89417710    -0.33340
C3138       C  0.77324248  0.30415792  0.89713963     0.35720
H3139       H  0.71722353  0.25699133  0.89981302     0.16090
O3140       O  0.75518521  0.21610856  0.89416482    -0.60830
H3141       H  0.81733518  0.29271591  0.89307239     0.16100
O3142       O  0.77958808  0.33303110  0.89867061    -0.60930
H3143       H  0.78427393  0.33673982  0.91953609     0.43100
H3144       H  0.75425937  0.21177390  0.87292259     0.43050
C3145       C  0.78784824  0.12837379  0.87501502    -0.06010
C3146       C  0.77021540  0.14978434  0.86299241    -0.33440
C3147       C  0.74025773  0.14809421  0.86578304     0.35810
C3148       C  0.72776629  0.12499402  0.88125189    -0.06370
C3149       C  0.74534848  0.10142368  0.88874066    -0.33340
C3150       C  0.77516812  0.10323819  0.88615769     0.35720
H3151       H  0.77979147  0.16921778  0.85410400     0.16090
O3152       O  0.72373866  0.17035395  0.85584126    -0.60830
H3153       H  0.73641307  0.08275843  0.89975478     0.16100
O3154       O  0.79181411  0.08176321  0.89763117    -0.60930
H3155       H  0.79282640  0.08592921  0.91894426     0.43100
H3156       H  0.71796847  0.16455640  0.83578054     0.43050
C3157       C  0.88413838  0.14972971  0.79280455    -0.06010
C3158       C  0.86134283  0.14597595  0.77300749    -0.33440
C3159       C  0.86648470  0.14458826  0.74244385     0.35810
C3160       C  0.89453136  0.14814100  0.73148023    -0.06370
C3161       C  0.91704265  0.15164975  0.75161044    -0.33340
C3162       C  0.91209836  0.15227635  0.78175086     0.35720
H3163       H  0.83961254  0.14428415  0.78124160     0.16090
O3164       O  0.84405058  0.14036799  0.72366217    -0.60830
H3165       H  0.93894905  0.15393174  0.74400379     0.16100
O3166       O  0.93483646  0.15606080  0.80030082    -0.60930
H3167       H  0.93997395  0.17679554  0.79886311     0.43100
H3168       H  0.83758209  0.16000787  0.71833299     0.43050
C3169       C  0.86167671  0.47907034  0.64771253    -0.06010
C3170       C  0.84336406  0.48187129  0.62380385    -0.33440
C3171       C  0.83840291  0.50906288  0.61165785     0.35810
C3172       C  0.85248272  0.53357527  0.62323695    -0.06370
C3173       C  0.87267096  0.53010664  0.64550771    -0.33340
C3174       C  0.87736977  0.50306396  0.65768409     0.35720
H3175       H  0.83192622  0.46331267  0.61548234     0.16090
O3176       O  0.81811106  0.51171450  0.59021479    -0.60830
H3177       H  0.88361466  0.54868669  0.65469407     0.16100
O3178       O  0.89624535  0.50060127  0.68042154    -0.60930
H3179       H  0.91481171  0.49559624  0.67109676     0.43100
H3180       H  0.79961453  0.51364089  0.60083250     0.43050
C3181       C  0.79547773  0.35915045  0.76094363    -0.06010
C3182       C  0.76590324  0.36170531  0.75644906    -0.33440
C3183       C  0.74713480  0.36438962  0.78050739     0.35810
C3184       C  0.75796992  0.36334698  0.80932246    -0.06370
C3185       C  0.78711332  0.35729531  0.81334926    -0.33340
C3186       C  0.80588393  0.35622955  0.78964634     0.35720
H3187       H  0.75769967  0.36446605  0.73446976     0.16090
O3188       O  0.71875459  0.36978029  0.77554367    -0.60830
H3189       H  0.79608772  0.35588928  0.83514776     0.16100
O3190       O  0.83473123  0.35435008  0.79489833    -0.60930
H3191       H  0.84066634  0.37385797  0.80159155     0.43100
H3192       H  0.71745257  0.39096832  0.77288722     0.43050
C3193       C  0.78531081  0.39198961  0.64485509    -0.06010
C3194       C  0.77965287  0.41528881  0.62642070    -0.33440
C3195       C  0.75169765  0.42085977  0.61687808     0.35810
C3196       C  0.72869613  0.40304789  0.62620968    -0.06370
C3197       C  0.73500629  0.37825154  0.64259743    -0.33340
C3198       C  0.76299607  0.37265563  0.65181692     0.35720
H3199       H  0.79656633  0.43028484  0.62096493     0.16090
O3200       O  0.74694225  0.44496696  0.60024962    -0.60830
H3201       H  0.71791913  0.36414350  0.65000349     0.16100
O3202       O  0.76779413  0.34968972  0.66998100    -0.60930
H3203       H  0.77487869  0.33406148  0.65696002     0.43100
H3204       H  0.74620822  0.46126845  0.61439481     0.43050
C3205       C  0.88763560  0.47482737  0.75625673    -0.06010
C3206       C  0.90800607  0.47719732  0.77836359    -0.33440
C3207       C  0.90557663  0.49867578  0.79990131     0.35810
C3208       C  0.88203927  0.51789036  0.79984080    -0.06370
C3209       C  0.86232435  0.51611154  0.77678903    -0.33340
C3210       C  0.86505018  0.49483308  0.75508627     0.35720
H3211       H  0.92517238  0.46161131  0.77969491     0.16090
O3212       O  0.92516647  0.49915701  0.82212182    -0.60830
H3213       H  0.84423085  0.53065542  0.77609558     0.16100
O3214       O  0.84499885  0.49317283  0.73329652    -0.60930
H3215       H  0.82940864  0.48092675  0.74135869     0.43100
H3216       H  0.94285820  0.50708651  0.81312188     0.43050
C3217       C  0.96550855  0.37023076  0.64615990    -0.06010
C3218       C  0.97317338  0.34578930  0.63012524    -0.33440
C3219       C  0.00098992  0.34264153  0.61942113     0.35810
C3220       C  0.02218461  0.36359236  0.62622738    -0.06370
C3221       C  0.01394994  0.38884322  0.64108361    -0.33340
C3222       C  0.98568114  0.39239796  0.65070712     0.35720
H3223       H  0.95791356  0.32851665  0.62685806     0.16090
O3224       O  0.00767160  0.31762169  0.60478343    -0.60830
H3225       H  0.02974163  0.40510113  0.64667797     0.16100
O3226       O  0.97863095  0.41638034  0.66687385    -0.60930
H3227       H  0.97082127  0.43026411  0.65252607     0.43100
H3228       H  0.00479429  0.32205549  0.58376031     0.43050
C3229       C  0.95278943  0.38383297  0.76123163    -0.06010
C3230       C  0.96861692  0.40826261  0.76994385    -0.33440
C3231       C  0.99009408  0.40619978  0.79151172     0.35810
C3232       C  0.99684573  0.37914819  0.80373000    -0.06370
C3233       C  0.98104385  0.35484914  0.79495755    -0.33340
C3234       C  0.95902613  0.35703943  0.77439008     0.35720
H3235       H  0.96412640  0.42905057  0.76025815     0.16090
O3236       O  0.00420868  0.43063008  0.80065969    -0.60830
H3237       H  0.98542921  0.33397723  0.80456671     0.16100
O3238       O  0.94398079  0.33261051  0.76705608    -0.60930
H3239       H  0.95522138  0.32337805  0.75110318     0.43100
H3240       H  0.01395043  0.43845414  0.78302066     0.43050
C3241       C  0.88171857  0.28843434  0.74965106    -0.06010
C3242       C  0.86090165  0.29046628  0.77183715    -0.33440
C3243       C  0.86137169  0.27195148  0.79591909     0.35810
C3244       C  0.88254429  0.25046491  0.79760381    -0.06370
C3245       C  0.90169502  0.24675982  0.77404479    -0.33340
C3246       C  0.90136822  0.26546317  0.75018370     0.35720
H3247       H  0.84490296  0.30719195  0.77113420     0.16090
O3248       O  0.84239898  0.27646917  0.81852322    -0.60830
H3249       H  0.91765827  0.22985558  0.77449576     0.16100
O3250       O  0.92084629  0.26148347  0.72792790    -0.60930
H3251       H  0.91068459  0.24968698  0.71304548     0.43100
H3252       H  0.82506730  0.26524213  0.81322169     0.43050
C3253       C  0.86704747  0.28638786  0.64284075    -0.06010
C3254       C  0.85713830  0.26054615  0.65525970    -0.33440
C3255       C  0.86816915  0.23394587  0.64612023     0.35810
C3256       C  0.88940369  0.23279650  0.62398740    -0.06370
C3257       C  0.89688767  0.25841161  0.60933553    -0.33340
C3258       C  0.88599376  0.28511209  0.61878758     0.35720
H3259       H  0.84251815  0.26106411  0.67378613     0.16090
O3260       O  0.85946923  0.20944682  0.66046211    -0.60830
H3261       H  0.91278768  0.25806742  0.59196160     0.16100
O3262       O  0.89435949  0.30988268  0.60477351    -0.60930
H3263       H  0.91303283  0.31507357  0.61348413     0.43100
H3264       H  0.84412437  0.20109493  0.64809244     0.43050
C3265       C  0.60547446  0.73034736  0.86048495    -0.06010
C3266       C  0.58276350  0.74564506  0.84809118    -0.33440
C3267       C  0.58061639  0.77549649  0.85101954     0.35810
C3268       C  0.60069697  0.79121588  0.86795097    -0.06370
C3269       C  0.62237376  0.77576481  0.88228442    -0.33340
C3270       C  0.62503355  0.74560064  0.87843998     0.35720
H3271       H  0.56715929  0.73463016  0.83452880     0.16090
O3272       O  0.55840196  0.78902995  0.83717035    -0.60830
H3273       H  0.63803695  0.78720172  0.89537898     0.16100
O3274       O  0.64788988  0.73174663  0.89068431    -0.60930
H3275       H  0.64100464  0.72526445  0.91018205     0.43100
H3276       H  0.56445240  0.79069263  0.81636405     0.43050
C3277       C  0.60933506  0.88663169  0.78941996    -0.06010
C3278       C  0.63113053  0.86778955  0.78043749    -0.33440
C3279       C  0.63443342  0.86018917  0.75087687     0.35810
C3280       C  0.61545128  0.87093880  0.72960248    -0.06370
C3281       C  0.59515290  0.89158705  0.73807324    -0.33340
C3282       C  0.59249680  0.89996638  0.76765066     0.35720
H3283       H  0.64452877  0.85738858  0.79654434     0.16090
O3284       O  0.65526658  0.84075621  0.74337395    -0.60830
H3285       H  0.58087462  0.90064375  0.72192282     0.16100
O3286       O  0.57270153  0.92049367  0.77519839    -0.60930
H3287       H  0.58354438  0.93891235  0.77588567     0.43100
H3288       H  0.67187498  0.85262223  0.73705800     0.43050
C3289       C  0.61616079  0.97344356  0.89777761    -0.06010
C3290       C  0.59405396  0.98955629  0.88499571    -0.33440
C3291       C  0.59418408  0.01973325  0.88642418     0.35810
C3292       C  0.61747609  0.03406233  0.89916971    -0.06370
C3293       C  0.64060011  0.01791976  0.90996613    -0.33340
C3294       C  0.63981326  0.98776060  0.90977431     0.35720
H3295       H  0.57604085  0.97877839  0.87494027     0.16090
O3296       O  0.57145429  0.03495440  0.87564049    -0.60830
H3297       H  0.65846030  0.02872926  0.92043747     0.16100
O3298       O  0.66123387  0.97257208  0.92308009    -0.60930
H3299       H  0.67529798  0.96840818  0.90727910     0.43100
H3300       H  0.55752932  0.03614273  0.89208624     0.43050
C3301       C  0.61050213  0.88577552  0.98018263    -0.06010
C3302       C  0.59906380  0.91174637  0.99042308    -0.33440
C3303       C  0.59886748  0.91868804  0.01991144     0.35810
C3304       C  0.61152024  0.90010922  0.04025199    -0.06370
C3305       C  0.62487528  0.87467637  0.03025020    -0.33340
C3306       C  0.62387280  0.86712329  0.00019174     0.35720
H3307       H  0.58999016  0.92711870  0.97559815     0.16090
O3308       O  0.58662397  0.94425206  0.02867630    -0.60830
H3309       H  0.63555108  0.86065930  0.04563040     0.16100
O3310       O  0.63533947  0.84150458  0.99081359    -0.60930
H3311       H  0.65527483  0.84621512  0.98492979     0.43100
H3312       H  0.60016636  0.95955379  0.02232701     0.43050
C3313       C  0.36528403  0.73008498  0.12211430    -0.06010
C3314       C  0.37554972  0.74161010  0.09583288    -0.33440
C3315       C  0.38068643  0.77128340  0.09340272     0.35810
C3316       C  0.37352759  0.79018739  0.11677314    -0.06370
C3317       C  0.36531105  0.77831319  0.14372895    -0.33340
C3318       C  0.36157794  0.74846906  0.14663255     0.35720
H3319       H  0.37907184  0.72768283  0.07702730     0.16090
O3320       O  0.39198327  0.78160817  0.06774297    -0.60830
H3321       H  0.35987942  0.79225406  0.16203883     0.16100
O3322       O  0.35141949  0.73785110  0.17273001    -0.60930
H3323       H  0.36871511  0.73386395  0.18452225     0.43100
H3324       H  0.41269795  0.78424815  0.07157705     0.43050
C3325       C  0.22661888  0.86120605  0.15313888    -0.06010
C3326       C  0.24786890  0.84384061  0.16592133    -0.33440
C3327       C  0.27680334  0.84801128  0.15917713     0.35810
C3328       C  0.28503171  0.87042943  0.14037016    -0.06370
C3329       C  0.26445053  0.88994476  0.13041521    -0.33340
C3330       C  0.23534831  0.88551684  0.13666243     0.35720
H3331       H  0.24202547  0.82517080  0.17888936     0.16090
O3332       O  0.29662000  0.82865524  0.16913710    -0.60830
H3333       H  0.27073643  0.90745738  0.11604624     0.16100
O3334       O  0.21563721  0.90364163  0.12442346    -0.60930
H3335       H  0.21129546  0.91808626  0.13989434     0.43100
H3336       H  0.30444908  0.83745828  0.18725331     0.43050
C3337       C  0.45947787  0.90027041  0.14949887    -0.06010
C3338       C  0.48132610  0.88459361  0.13590732    -0.33440
C3339       C  0.50989487  0.89209866  0.14075288     0.35810
C3340       C  0.51650202  0.91582019  0.15920237    -0.06370
C3341       C  0.49460074  0.92855119  0.17585836    -0.33340
C3342       C  0.46617604  0.92078304  0.17111721     0.35720
H3343       H  0.47624871  0.86833981  0.11957610     0.16090
O3344       O  0.53094205  0.87722376  0.12606644    -0.60830
H3345       H  0.49917984  0.94618211  0.19079387     0.16100
O3346       O  0.44495894  0.93506379  0.18595685    -0.60930
H3347       H  0.43963832  0.92219727  0.20244492     0.43100
H3348       H  0.53148479  0.88546052  0.10604236     0.43050
C3349       C  0.50532066  0.89606252  0.98078415    -0.06010
C3350       C  0.51077110  0.90682561  0.00915482    -0.33440
C3351       C  0.48911849  0.90687963  0.03085290     0.35810
C3352       C  0.46134878  0.89683470  0.02398511    -0.06370
C3353       C  0.45635120  0.88645174  0.99549422    -0.33340
C3354       C  0.47792808  0.88519528  0.97446332     0.35720
H3355       H  0.53164869  0.91563501  0.01433866     0.16090
O3356       O  0.49497965  0.91824835  0.05794543    -0.60830
H3357       H  0.43498912  0.88088764  0.98855024     0.16100
O3358       O  0.47105567  0.87591361  0.94679324    -0.60930
H3359       H  0.47101280  0.85453882  0.94790553     0.43100
H3360       H  0.49680478  0.90135024  0.07103339     0.43050
C3361       C  0.36795892  0.97836187  0.14107286    -0.06010
C3362       C  0.35500076  0.99936614  0.12337010    -0.33440
C3363       C  0.36206730  0.02869600  0.12605695     0.35810
C3364       C  0.38306292  0.03767045  0.14633884    -0.06370
C3365       C  0.39338501  0.01713841  0.16637203    -0.33340
C3366       C  0.38558654  0.98785325  0.16417204     0.35720
H3367       H  0.34079810  0.99280549  0.10584528     0.16090
O3368       O  0.35022805  0.04784559  0.10680303    -0.60830
H3369       H  0.40893300  0.02343034  0.18274691     0.16100
O3370       O  0.39751597  0.96847112  0.18302306    -0.60930
H3371       H  0.38348368  0.96652150  0.19928386     0.43100
H3372       H  0.33309293  0.05554080  0.11705871     0.43050
C3373       C  0.27927757  0.11326950  0.85561819    -0.06010
C3374       C  0.26555304  0.13504437  0.87220183    -0.33440
C3375       C  0.23537280  0.13755581  0.87269331     0.35810
C3376       C  0.21825569  0.11751052  0.85725551    -0.06370
C3377       C  0.23220479  0.09474281  0.84243744    -0.33340
C3378       C  0.26202388  0.09304651  0.84078582     0.35720
H3379       H  0.27827714  0.15085182  0.88391420     0.16090
O3380       O  0.22311597  0.16059481  0.88682264    -0.60830
H3381       H  0.21994984  0.07876779  0.83041055     0.16100
O3382       O  0.27402287  0.07129311  0.82447132    -0.60930
H3383       H  0.27373109  0.07823548  0.80393626     0.43100
H3384       H  0.21912650  0.15373309  0.90699886     0.43050
C3385       C  0.37742749  0.13522409  0.77751224    -0.06010
C3386       C  0.35828016  0.15709836  0.76918588    -0.33440
C3387       C  0.35181620  0.16192240  0.73928496     0.35810
C3388       C  0.36395726  0.14442052  0.71699144    -0.06370
C3389       C  0.38550429  0.12507377  0.72514012    -0.33340
C3390       C  0.39262896  0.12080632  0.75476254     0.35720
H3391       H  0.34631743  0.16868740  0.78585311     0.16090
O3392       O  0.33077319  0.18124604  0.73242254    -0.60830
H3393       H  0.39492155  0.11104306  0.70868242     0.16100
O3394       O  0.41260991  0.10021562  0.76125755    -0.60930
H3395       H  0.43060309  0.11108401  0.76471734     0.43100
H3396       H  0.34105253  0.19858269  0.72517518     0.43050
C3397       C  0.46425068  0.12851606  0.87273068    -0.06010
C3398       C  0.48678975  0.10951757  0.86512090    -0.33440
C3399       C  0.51526279  0.11450589  0.87405294     0.35810
C3400       C  0.52226858  0.13905540  0.89095714    -0.06370
C3401       C  0.50014101  0.15900947  0.89693229    -0.33340
C3402       C  0.47157191  0.15387506  0.88826041     0.35720
H3403       H  0.48214311  0.08969130  0.85339570     0.16090
O3404       O  0.53563076  0.09419368  0.86760937    -0.60830
H3405       H  0.50460502  0.17811219  0.90989847     0.16100
O3406       O  0.45080525  0.17308833  0.89663200    -0.60930
H3407       H  0.44596186  0.16789231  0.91713441     0.43100
H3408       H  0.54422402  0.10044032  0.84874170     0.43050
C3409       C  0.46474626  0.01576294  0.88857799    -0.06010
C3410       C  0.46239171  0.99291556  0.86839468    -0.33440
C3411       C  0.48157375  0.96987690  0.86880449     0.35810
C3412       C  0.50410857  0.96968844  0.88913133    -0.06370
C3413       C  0.50835922  0.99384759  0.90725760    -0.33340
C3414       C  0.48884778  0.01680545  0.90716274     0.35720
H3415       H  0.44474678  0.99206717  0.85313953     0.16090
O3416       O  0.47789819  0.94738776  0.84949637    -0.60830
H3417       H  0.52575999  0.99410268  0.92286728     0.16100
O3418       O  0.49259563  0.03907732  0.92666004    -0.60930
H3419       H  0.50385866  0.05378962  0.91581333     0.43100
H3420       H  0.46190412  0.93574280  0.85766100     0.43050
C3421       C  0.38597620  0.12420583  0.96613819    -0.06010
C3422       C  0.37637210  0.10397765  0.98684082    -0.33440
C3423       C  0.37724707  0.11005167  0.01711510     0.35810
C3424       C  0.38846786  0.13667040  0.02740161    -0.06370
C3425       C  0.39628986  0.15752999  0.00636367    -0.33340
C3426       C  0.39481346  0.15157158  0.97610505     0.35720
H3427       H  0.36897125  0.08296834  0.97956593     0.16090
O3428       O  0.36933745  0.08878193  0.03637192    -0.60830
H3429       H  0.40496725  0.17811030  0.01339957     0.16100
O3430       O  0.40349520  0.17219179  0.95649684    -0.60930
H3431       H  0.38577320  0.18249520  0.95095818     0.43100
H3432       H  0.34856148  0.09168371  0.03977972     0.43050
C3433       C  0.38027408  0.01100835  0.96128118    -0.06010
C3434       C  0.35371872  0.00220193  0.97243514    -0.33440
C3435       C  0.35212011  0.98006171  0.99295013     0.35810
C3436       C  0.37736180  0.96698989  0.00251265    -0.06370
C3437       C  0.40405958  0.97766776  0.99351236    -0.33340
C3438       C  0.40563300  0.99952827  0.97269138     0.35720
H3439       H  0.33424526  0.01112767  0.96378345     0.16090
O3440       O  0.32591243  0.97042739  0.00243207    -0.60830
H3441       H  0.42360771  0.96774955  0.00119639     0.16100
O3442       O  0.43178935  0.00717978  0.96125359    -0.60930
H3443       H  0.43707571  0.02533213  0.97147854     0.43100
H3444       H  0.32196167  0.98149809  0.02064866     0.43050
C3445       C  0.39357154  0.64445319  0.79168828    -0.06010
C3446       C  0.36889174  0.64390998  0.77407326    -0.33440
C3447       C  0.37141847  0.64436191  0.74327077     0.35810
C3448       C  0.39872998  0.64654426  0.73030388    -0.06370
C3449       C  0.42302232  0.64591256  0.74818969    -0.33340
C3450       C  0.42070239  0.64397452  0.77830672     0.35720
H3451       H  0.34783764  0.64454062  0.78411851     0.16090
O3452       O  0.34729749  0.64475667  0.72632293    -0.60830
H3453       H  0.44431540  0.64720136  0.73892819     0.16100
O3454       O  0.44524782  0.64198962  0.79465418    -0.60930
H3455       H  0.45449575  0.66126595  0.79353341     0.43100
H3456       H  0.34257139  0.62417563  0.72272447     0.43050
C3457       C  0.45625029  0.76146857  0.87951524    -0.06010
C3458       C  0.48584879  0.75833964  0.88289217    -0.33440
C3459       C  0.50301491  0.78263590  0.88850391     0.35810
C3460       C  0.49055073  0.81034150  0.88968050    -0.06370
C3461       C  0.46072506  0.81283140  0.88790193    -0.33340
C3462       C  0.44372842  0.78880452  0.88259519     0.35720
H3463       H  0.49553129  0.73716939  0.88159537     0.16090
O3464       O  0.53174669  0.77903635  0.89288392    -0.60830
H3465       H  0.45040931  0.83369721  0.88924383     0.16100
O3466       O  0.41480117  0.79243389  0.87951350    -0.60930
H3467       H  0.41217578  0.79834125  0.85883144     0.43100
H3468       H  0.53386576  0.77655124  0.91433871     0.43050
C3469       C  0.46935271  0.64237287  0.88265197    -0.06010
C3470       C  0.49168023  0.66269448  0.88488341    -0.33440
C3471       C  0.51980168  0.65594539  0.87612030     0.35810
C3472       C  0.52650443  0.62812634  0.86515846    -0.06370
C3473       C  0.50464902  0.60716540  0.86505741    -0.33340
C3474       C  0.47646693  0.61400122  0.87361449     0.35720
H3475       H  0.48712702  0.68451421  0.89203852     0.16090
O3476       O  0.54038526  0.67707348  0.87777121    -0.60830
H3477       H  0.50900066  0.58565988  0.85682070     0.16100
O3478       O  0.45578892  0.59305860  0.87134857    -0.60930
H3479       H  0.45497976  0.58386832  0.89092985     0.43100
H3480       H  0.53734271  0.68942062  0.86035383     0.43050
C3481       C  0.35463997  0.61838963  0.03315936    -0.06010
C3482       C  0.37133820  0.64298675  0.02696101    -0.33440
C3483       C  0.37655619  0.65135694  0.99811543     0.35810
C3484       C  0.36595083  0.63457447  0.97498295    -0.06370
C3485       C  0.35210191  0.60834942  0.98085958    -0.33340
C3486       C  0.34646681  0.60007215  0.00983836     0.35720
H3487       H  0.37842845  0.65720092  0.04440068     0.16090
O3488       O  0.39080689  0.67674120  0.99267766    -0.60830
H3489       H  0.34380769  0.59537193  0.96299238     0.16100
O3490       O  0.33072955  0.57554185  0.01484032    -0.60930
H3491       H  0.34506406  0.56023043  0.01836834     0.43100
H3492       H  0.37630900  0.69211180  0.99534708     0.43050
C3493       C  0.37762988  0.76668771  0.96858772    -0.06010
C3494       C  0.39710074  0.78972563  0.96919151    -0.33440
C3495       C  0.39505146  0.81121959  0.99065531     0.35810
C3496       C  0.37286133  0.81053825  0.01160228    -0.06370
C3497       C  0.35441227  0.78654051  0.01223554    -0.33340
C3498       C  0.35674485  0.76458415  0.99094102     0.35720
H3499       H  0.41329326  0.79168965  0.95218760     0.16090
O3500       O  0.41459205  0.83320796  0.99056776    -0.60830
H3501       H  0.33726161  0.78555741  0.02829430     0.16100
O3502       O  0.33665922  0.74293865  0.99027827    -0.60930
H3503       H  0.34114875  0.73039405  0.00718524     0.43100
H3504       H  0.42983979  0.82696340  0.00416940     0.43050
C3505       C  0.28317352  0.64524744  0.89606384    -0.06010
C3506       C  0.26254333  0.63824234  0.87478498    -0.33440
C3507       C  0.23316375  0.63787635  0.88231181     0.35810
C3508       C  0.22462307  0.64621003  0.91076126    -0.06370
C3509       C  0.24538645  0.65212841  0.93180617    -0.33340
C3510       C  0.27418529  0.65099439  0.92495921     0.35720
H3511       H  0.26906995  0.63424528  0.85232143     0.16090
O3512       O  0.21314835  0.63149901  0.86140463    -0.60830
H3513       H  0.23925026  0.65799624  0.95399821     0.16100
O3514       O  0.29334176  0.65757178  0.94654755    -0.60930
H3515       H  0.29624278  0.63927849  0.95733161     0.43100
H3516       H  0.20983390  0.61042159  0.86310671     0.43050
C3517       C  0.12397487  0.97860806  0.88053804    -0.06010
C3518       C  0.14073650  0.00195559  0.89044045    -0.33440
C3519       C  0.13367047  0.03044088  0.88353236     0.35810
C3520       C  0.10930754  0.03619569  0.86652431    -0.06370
C3521       C  0.09087335  0.01310717  0.85930875    -0.33340
C3522       C  0.09817462  0.98446225  0.86594388     0.35720
H3523       H  0.16064788  0.99795821  0.90179196     0.16090
O3524       O  0.15186685  0.05224104  0.89181425    -0.60830
H3525       H  0.07196816  0.01694154  0.84626056     0.16100
O3526       O  0.08136149  0.96236915  0.85561680    -0.60930
H3527       H  0.08854876  0.95833752  0.83551375     0.43100
H3528       H  0.14363670  0.06000382  0.91029681     0.43050
C3529       C  0.13570594  0.87849190  0.98174235    -0.06010
C3530       C  0.10876682  0.86755438  0.98985226    -0.33440
C3531       C  0.10194389  0.86238030  0.01947333     0.35810
C3532       C  0.12212706  0.86845069  0.04171831    -0.06370
C3533       C  0.14827054  0.88140084  0.03351583    -0.33340
C3534       C  0.15527913  0.88589876  0.00388633     0.35720
H3535       H  0.09359713  0.86138577  0.97305585     0.16090
O3536       O  0.07612643  0.84980643  0.02618227    -0.60830
H3537       H  0.16427489  0.88622186  0.04993069     0.16100
O3538       O  0.18171755  0.89681345  0.99669790    -0.60930
H3539       H  0.19497354  0.88018655  0.99783937     0.43100
H3540       H  0.06326395  0.86607842  0.03123561     0.43050
C3541       C  0.25957567  0.88712203  0.96601045    -0.06010
C3542       C  0.25712054  0.90896666  0.98730546    -0.33440
C3543       C  0.27344739  0.90769862  0.01314005     0.35810
C3544       C  0.29120207  0.88376106  0.01805505    -0.06370
C3545       C  0.29264986  0.86162739  0.99709939    -0.33340
C3546       C  0.27742903  0.86339064  0.97111648     0.35720
H3547       H  0.24297161  0.92706764  0.98370714     0.16090
O3548       O  0.27095625  0.92898426  0.03396397    -0.60830
H3549       H  0.30637969  0.84312721  0.00049664     0.16100
O3550       O  0.27934479  0.84120340  0.95121345    -0.60930
H3551       H  0.29640188  0.84569946  0.93900591     0.43100
H3552       H  0.27911711  0.94657986  0.02486075     0.43050
C3553       C  0.24856977  0.97235636  0.87947368    -0.06010
C3554       C  0.26175168  0.98291608  0.90502364    -0.33440
C3555       C  0.28252905  0.00521499  0.90358894     0.35810
C3556       C  0.29115582  0.01695622  0.87623809    -0.06370
C3557       C  0.27692566  0.00722971  0.85112422    -0.33340
C3558       C  0.25608250  0.98559157  0.85242287     0.35720
H3559       H  0.25634804  0.97358846  0.92608445     0.16090
O3560       O  0.29478649  0.01466497  0.92903818    -0.60830
H3561       H  0.28279759  0.01546687  0.82973412     0.16100
O3562       O  0.24382802  0.97706895  0.82652366    -0.60930
H3563       H  0.25790137  0.96381214  0.81730113     0.43100
H3564       H  0.28307569  0.03139085  0.93537453     0.43050
C3565       C  0.24705764  0.79990234  0.90605518    -0.06010
C3566       C  0.24416942  0.77732946  0.92650366    -0.33440
C3567       C  0.26452309  0.75515471  0.92795404     0.35810
C3568       C  0.28828077  0.75538376  0.90882621    -0.06370
C3569       C  0.29015250  0.77707024  0.88743771    -0.33340
C3570       C  0.27017180  0.79928822  0.88616723     0.35720
H3571       H  0.22653606  0.77726826  0.94201117     0.16090
O3572       O  0.26135670  0.73397364  0.94863285    -0.60830
H3573       H  0.30800137  0.77763501  0.87227129     0.16100
O3574       O  0.27436390  0.82100677  0.86625576    -0.60930
H3575       H  0.28705197  0.83514405  0.87619574     0.43100
H3576       H  0.25010908  0.71855056  0.93885140     0.43050
C3577       C  0.13681998  0.73015057  0.90440297    -0.06010
C3578       C  0.14461663  0.74875491  0.92750221    -0.33440
C3579       C  0.14846167  0.77847040  0.92329797     0.35810
C3580       C  0.14460672  0.79072172  0.89547971    -0.06370
C3581       C  0.13762820  0.77224290  0.87187347    -0.33340
C3582       C  0.13322324  0.74222316  0.87630986     0.35720
H3583       H  0.14669387  0.74042653  0.94950037     0.16090
O3584       O  0.15498524  0.79566098  0.94691248    -0.60830
H3585       H  0.13488758  0.78118639  0.85017566     0.16100
O3586       O  0.12449464  0.72520527  0.85338402    -0.60930
H3587       H  0.10328540  0.72604371  0.85382510     0.43100
H3588       H  0.17469293  0.79026041  0.95262147     0.43050
C3589       C  0.12939588  0.88913354  0.73399820    -0.06010
C3590       C  0.10409271  0.89074371  0.75078194    -0.33440
C3591       C  0.10448651  0.88573630  0.78112900     0.35810
C3592       C  0.13019796  0.87806088  0.79490697    -0.06370
C3593       C  0.15453615  0.87295556  0.77729744    -0.33340
C3594       C  0.15449663  0.87918811  0.74724395     0.35720
H3595       H  0.08460237  0.89864066  0.74089436     0.16090
O3596       O  0.08056603  0.89176766  0.79755312    -0.60830
H3597       H  0.17442991  0.86652350  0.78717315     0.16100
O3598       O  0.17957551  0.87759539  0.73155083    -0.60930
H3599       H  0.17955863  0.85805727  0.72262166     0.43100
H3600       H  0.07070384  0.87295115  0.80004801     0.43050
C3601       C  0.38165254  0.78613635  0.64162188    -0.06010
C3602       C  0.40506465  0.78341824  0.62264444    -0.33440
C3603       C  0.41220865  0.75642338  0.61099182     0.35810
C3604       C  0.39624781  0.73176904  0.61920506    -0.06370
C3605       C  0.37159211  0.73501500  0.63647522    -0.33340
C3606       C  0.36399430  0.76213705  0.64732067     0.35720
H3607       H  0.41898129  0.80175730  0.61859017     0.16090
O3608       O  0.43692236  0.75383536  0.59483238    -0.60830
H3609       H  0.35924715  0.71626004  0.64304970     0.16100
O3610       O  0.34087883  0.76447445  0.66582715    -0.60930
H3611       H  0.32515092  0.77188791  0.65347811     0.43100
H3612       H  0.43104283  0.75679689  0.57421661     0.43050
C3613       C  0.47006236  0.85695163  0.65310920    -0.06010
C3614       C  0.47564663  0.86209843  0.62327805    -0.33440
C3615       C  0.50387962  0.86179778  0.61251518     0.35810
C3616       C  0.52682699  0.85773834  0.63202235    -0.06370
C3617       C  0.52102499  0.85414825  0.66193036    -0.33340
C3618       C  0.49317908  0.85249056  0.67228829     0.35720
H3619       H  0.45814072  0.86583330  0.60830484     0.16090
O3620       O  0.50870735  0.86501289  0.58303661    -0.60830
H3621       H  0.53812848  0.85085423  0.67748892     0.16100
O3622       O  0.48896396  0.84715190  0.70156680    -0.60930
H3623       H  0.49025354  0.82589198  0.70357889     0.43100
H3624       H  0.51239008  0.88591430  0.58027500     0.43050
C3625       C  0.35045559  0.79210777  0.75954797    -0.06010
C3626       C  0.34944943  0.80320712  0.78816789    -0.33440
C3627       C  0.35546568  0.78617521  0.81237751     0.35810
C3628       C  0.36346324  0.75707134  0.80841627    -0.06370
C3629       C  0.36275389  0.74521610  0.77987452    -0.33340
C3630       C  0.35639592  0.76260377  0.75546191     0.35720
H3631       H  0.34612601  0.82608388  0.79181400     0.16090
O3632       O  0.35609454  0.79906861  0.83954540    -0.60830
H3633       H  0.36851961  0.72284732  0.77629036     0.16100
O3634       O  0.35835823  0.75113916  0.72777930    -0.60930
H3635       H  0.37869679  0.75359032  0.72191426     0.43100
H3636       H  0.33670787  0.80714351  0.84285260     0.43050
C3637       C  0.45572173  0.88741444  0.76151964    -0.06010
C3638       C  0.44783379  0.87778802  0.78958674    -0.33440
C3639       C  0.46840036  0.87233445  0.81047557     0.35810
C3640       C  0.49728504  0.87617079  0.80341469    -0.06370
C3641       C  0.50539746  0.88768961  0.77634662    -0.33340
C3642       C  0.48462176  0.89384997  0.75528984     0.35720
H3643       H  0.42567576  0.87324312  0.79509078     0.16090
O3644       O  0.46018083  0.86187810  0.83731615    -0.60830
H3645       H  0.52770141  0.89169436  0.77152398     0.16100
O3646       O  0.49245206  0.90616846  0.72903767    -0.60930
H3647       H  0.50919691  0.89522869  0.72156128     0.43100
H3648       H  0.45450789  0.87910163  0.84890397     0.43050
C3649       C  0.36311982  0.96653128  0.65132664    -0.06010
C3650       C  0.34441629  0.97234098  0.62853264    -0.33440
C3651       C  0.33877451  0.00073996  0.62058057     0.35810
C3652       C  0.35110258  0.02404256  0.63656747    -0.06370
C3653       C  0.37179736  0.01802056  0.65773101    -0.33340
C3654       C  0.37823323  0.98931067  0.66490178     0.35720
H3655       H  0.33305400  0.95485536  0.61779420     0.16090
O3656       O  0.31925797  0.00525835  0.59873012    -0.60830
H3657       H  0.38229332  0.03550680  0.66933291     0.16100
O3658       O  0.39941469  0.98338265  0.68480776    -0.60930
H3659       H  0.39774023  0.99769549  0.70093755     0.43100
H3660       H  0.33072122  0.00590778  0.58037675     0.43050
C3661       C  0.37979167  0.94970598  0.76264097    -0.06010
C3662       C  0.39038205  0.94344695  0.79063168    -0.33440
C3663       C  0.38972280  0.96450077  0.81288145     0.35810
C3664       C  0.37907058  0.99223564  0.80679687    -0.06370
C3665       C  0.36807142  0.99808671  0.77893813    -0.33340
C3666       C  0.36766186  0.97684718  0.75725712     0.35720
H3667       H  0.39912289  0.92233194  0.79518360     0.16090
O3668       O  0.40036379  0.95811922  0.84002902    -0.60830
H3669       H  0.35883592  0.01898895  0.77426366     0.16100
O3670       O  0.35437539  0.98248217  0.73118536    -0.60930
H3671       H  0.33439188  0.97562718  0.73381758     0.43100
H3672       H  0.38406827  0.94951448  0.85097417     0.43050
C3673       C  0.28139692  0.88212209  0.75485185    -0.06010
C3674       C  0.26193995  0.90488767  0.75824098    -0.33440
C3675       C  0.24282048  0.90527057  0.78171925     0.35810
C3676       C  0.24394777  0.88342630  0.80296944    -0.06370
C3677       C  0.26219471  0.85995094  0.79902047    -0.33340
C3678       C  0.28019829  0.85870426  0.77451258     0.35720
H3679       H  0.26175347  0.92267618  0.74289331     0.16090
O3680       O  0.22423992  0.92797709  0.78467952    -0.60830
H3681       H  0.26232099  0.84255293  0.81476548     0.16100
O3682       O  0.29703760  0.83492747  0.77054674    -0.60930
H3683       H  0.28530057  0.82131089  0.75881913     0.43100
H3684       H  0.20721426  0.92248287  0.77299952     0.43050
C3685       C  0.21824844  0.89200036  0.63657128    -0.06010
C3686       C  0.23265035  0.87204125  0.61835517    -0.33440
C3687       C  0.25992329  0.86152459  0.62629464     0.35810
C3688       C  0.27339664  0.87247151  0.65156655    -0.06370
C3689       C  0.25896137  0.89227976  0.66910780    -0.33340
C3690       C  0.23176907  0.90160140  0.66234981     0.35720
H3691       H  0.22264546  0.86435340  0.59843010     0.16090
O3692       O  0.27343007  0.84152638  0.60892759    -0.60830
H3693       H  0.26854147  0.90062714  0.68877307     0.16100
O3694       O  0.21869350  0.92035392  0.68139146    -0.60930
H3695       H  0.23094415  0.93791122  0.68166676     0.43100
H3696       H  0.26764806  0.82254411  0.61704135     0.43050
loop_ 
_geom_bond_atom_site_label_1 
_geom_bond_atom_site_label_2 
_geom_bond_distance 
_geom_bond_site_symmetry_2 
_ccdc_geom_bond_type 
O1            C9   1.263       .  A
O1          Co21   1.878       .  S
O2           C10   1.251       .  A
O2          Co22   1.937       .  S
O3           C11   1.267       .  A
O3          Co23   2.051       .  S
O4           C12   1.277       .  A
O4          Co24   2.033       .  S
O5           C11   1.247       .  A
O5          Co22   1.940       .  S
O6           C12   1.263       .  A
O6          Co21   1.970       .  S
O7           C10   1.263       .  A
O7          Co24   2.011       .  S
O8            C9   1.292       .  A
O8          Co23   2.108       .  S
C9         C3673   1.472       .  S
C10        C3637   1.462       .  S
C11        C3625   1.476       .  S
C12        C3661   1.467       .  S
O13          C26   1.263       .  A
O13         Co21   1.999       .  S
O14          C27   1.277       .  A
O14         Co22   2.018       .  S
O15          C28   1.272       .  A
O15         Co23   1.900       .  S
O16          C29   1.266       .  A
O16         Co24   1.967       .  S
O17          C29   1.274       .  A
O17         Co22   1.998       .  S
O18          C28   1.299       .  A
O18         Co21   2.095       .  S
O19          C26   1.257       .  A
O19         Co24   1.966       .  S
O20          C27   1.265       .  A
O20         Co23   1.957       .  S
Co21         O25   1.967       .  S
Co22         O25   1.967       .  S
Co23         O25   2.029       .  S
Co24         O25   2.061       .  S
C26        C3649   1.463       .  S
C27        C3601   1.458       .  S
C28        C3688   1.469       .  S
C29        C3613   1.471       .  S
O30          C38   1.261       .  A
O30         Co50   1.943       .  S
O31          C39   1.248       .  A
O31         Co51   2.008       .  S
O32          C40   1.291       .  A
O32         Co52   2.090       .  S
O33          C41   1.261       .  A
O33         Co53   2.026       .  S
O34          C40   1.261       .  A
O34         Co51   1.919       .  S
O35          C41   1.247       .  A
O35         Co50   1.962       .  S
O36          C39   1.264       .  A
O36         Co53   2.040       .  S
O37          C38   1.277       .  A
O37         Co52   2.019       .  S
C38        C3676   1.455       .  S
C39        C3580   1.495       .  S
C40        C3565   1.482       .  S
C41        C3592   1.480       .  S
O42          C55   1.259       .  A
O42         Co50   1.940       .  S
O43          C56   1.294       .  A
O43         Co51   2.075       .  S
O44          C57   1.263       .  A
O44         Co52   2.042       .  S
O45          C58   1.269       .  A
O45         Co53   1.993       .  S
O46          C58   1.271       .  A
O46         Co51   2.008       .  S
O47          C57   1.246       .  A
O47         Co50   1.968       .  S
O48          C55   1.283       .  A
O48         Co53   2.057       .  S
O49          C56   1.274       .  A
O49         Co52   1.904       .  S
Co50         O54   2.061       .  S
Co51         O54   2.011       .  S
Co52         O54   2.061       .  S
Co53         O54   2.111       .  S
C55        C3517   1.484       .  S
C56        C3541   1.464       .  S
C57        C3553   1.506       .  S
C58        C3529   1.484       .  S
O59          C67   1.251       .  A
O59         Co79   1.969       .  S
O60          C68   1.269       .  A
O60         Co80   2.025       .  S
O61          C69   1.275       .  A
O61         Co81   1.974       .  S
O62          C70   1.270       .  A
O62         Co82   1.931       .  S
O63          C69   1.277       .  A
O63         Co80   1.998       .  S
O64          C70   1.287       .  A
O64         Co79   2.068       .  S
O65          C68   1.253       .  A
O65         Co82   1.974       .  S
O66          C67   1.253       .  A
O66         Co81   2.000       .  S
C67        C3628   1.488       .  S
C68        C3505   1.470       .  S
C69        C3445   1.469       .  S
C70        C3568   1.483       .  S
O71          C84   1.266       .  A
O71         Co79   1.893       .  S
O72          C85   1.268       .  A
O72         Co80   2.022       .  S
O73          C86   1.281       .  A
O73         Co81   1.898       .  S
O74          C87   1.267       .  A
O74         Co82   1.980       .  S
O75          C87   1.263       .  A
O75         Co80   1.974       .  S
O76          C86   1.298       .  A
O76         Co79   2.059       .  S
O77          C84   1.298       .  A
O77         Co82   2.087       .  S
O78          C85   1.262       .  A
O78         Co81   2.003       .  S
Co79         O83   2.073       .  S
Co80         O83   2.062       .  S
Co81         O83   1.870       .  S
Co82         O83   1.986       .  S
C84        C3493   1.476       .  S
C85        C3469   1.503       .  S
C86        C3457   1.460       .  S
C87        C3484   1.460       .  S
O88          C96   1.284       .  A
O88        Co108   2.044       .  S
O89          C97   1.266       .  A
O89        Co109   2.016       .  S
O90          C98   1.259       .  A
O90        Co110   1.875       .  S
O91          C99   1.265       .  A
O91        Co111   1.986       .  S
O92          C98   1.290       .  A
O92        Co109   2.091       .  S
O93          C99   1.274       .  A
O93        Co108   2.017       .  S
O94          C97   1.261       .  A
O94        Co111   1.999       .  S
O95          C96   1.268       .  A
O95        Co110   1.980       .  S
C96        C3556   1.505       .  S
C97        C3421   1.490       .  S
C98        C3433   1.448       .  S
C99        C3373   1.498       .  S
O100        C113   1.253       .  A
O100       Co108   1.958       .  S
O101        C114   1.265       .  A
O101       Co109   1.908       .  S
O102        C115   1.256       .  A
O102       Co110   2.006       .  S
O103        C116   1.286       .  A
O103       Co111   2.077       .  S
O104        C116   1.258       .  A
O104       Co109   1.961       .  S
O105        C115   1.252       .  A
O105       Co108   1.969       .  S
O106        C113   1.280       .  A
O106       Co111   2.076       .  S
O107        C114   1.293       .  A
O107       Co110   2.095       .  S
Co108       O112   2.025       .  S
Co109       O112   2.014       .  S
Co110       O112   2.025       .  S
Co111       O112   2.080       .  S
C113       C3385   1.513       .  S
C114       C3409   1.484       .  S
C115       C3664   1.471   1_545  S
C116       C3397   1.513       .  S
O117        C125   1.271       .  A
O117       Co137   2.006       .  S
O118        C126   1.268       .  A
O118       Co138   2.013       .  S
O119        C127   1.259       .  A
O119       Co139   1.982       .  S
O120        C128   1.280       .  A
O120       Co140   2.041       .  S
O121        C127   1.256       .  A
O121       Co138   1.983       .  S
O122        C128   1.284       .  A
O122       Co137   2.005       .  S
O123        C126   1.256       .  A
O123       Co140   1.959       .  S
O124        C125   1.260       .  A
O124       Co139   2.018       .  S
C125       C3496   1.483       .  S
C126       C3337   1.457       .  S
C127       C3352   1.491       .  S
C128       C3316   1.484       .  S
O129        C142   1.248       .  A
O129       Co137   1.980       .  S
O130        C143   1.283       .  A
O130       Co138   2.051       .  S
O131        C144   1.292       .  A
O131       Co139   2.069       .  S
O132        C145   1.270       .  A
O132       Co140   2.056       .  S
O133        C145   1.248       .  A
O133       Co138   1.957       .  S
O134        C144   1.264       .  A
O134       Co137   1.894       .  S
O135        C142   1.251       .  A
O135       Co140   1.998       .  S
O136        C143   1.262       .  A
O136       Co139   1.883       .  S
Co137       O141   1.934       .  S
Co138       O141   2.116       .  S
Co139       O141   2.062       .  S
Co140       O141   2.112       .  S
C142       C3328   1.466       .  S
C143       C3436   1.450       .  S
C144       C3544   1.467       .  S
C145       C3361   1.494       .  S
O146        C154   1.265       .  A
O146       Co166   1.906       .  S
O147        C155   1.277       .  A
O147       Co167   1.997       .  S
O148        C156   1.254       .  A
O148       Co168   1.976       .  S
O149        C157   1.279       .  A
O149       Co169   2.041       .  S
O150        C156   1.254       .  A
O150       Co167   1.983       .  S
O151        C157   1.261       .  A
O151       Co166   1.977       .  S
O152        C155   1.276       .  A
O152       Co169   1.992       .  S
O153        C154   1.282       .  A
O153       Co168   2.058       .  S
C154       C3640   1.441       .  S
C155       C3289   1.467       .  S
C156       C3412   1.475       .  S
C157       C3277   1.490       .  S
O158        C171   1.259       .  A
O158       Co166   1.972       .  S
O159        C172   1.274       .  A
O159       Co167   1.898       .  S
O160        C173   1.270       .  A
O160       Co168   1.878       .  S
O161        C174   1.261       .  A
O161       Co169   2.028       .  S
O162        C174   1.247       .  A
O162       Co167   1.989       .  S
O163        C173   1.296       .  A
O163       Co166   2.078       .  S
O164        C171   1.272       .  A
O164       Co169   2.027       .  S
O165        C172   1.304       .  A
O165       Co168   2.088       .  S
Co166       O170   1.963       .  S
Co167       O170   1.860       .  S
Co168       O170   2.076       .  S
Co169       O170   2.069       .  S
C171       C3268   1.496       .  S
C172       C3349   1.481       .  S
C173       C3460   1.475       .  S
C174       C3301   1.474       .  S
O175        C183   1.291       .  A
O175       Co195   2.099       .  S
O176        C184   1.264       .  A
O176       Co196   2.019       .  S
O177        C185   1.268       .  A
O177       Co197   1.971       .  S
O178        C186   1.253       .  A
O178       Co198   1.955       .  S
O179        C185   1.282       .  A
O179       Co196   2.047       .  S
O180        C186   1.264       .  A
O180       Co195   2.022       .  S
O181        C184   1.253       .  A
O181       Co198   1.956       .  S
O182        C183   1.261       .  A
O182       Co197   1.896       .  S
C183       C3241   1.474       .  S
C184       C3205   1.467       .  S
C185       C3229   1.492       .  S
C186       C3181   1.468       .  S
O187        C200   1.268       .  A
O187       Co195   1.975       .  S
O188        C201   1.250       .  A
O188       Co196   1.963       .  S
O189        C202   1.297       .  A
O189       Co197   2.094       .  S
O190        C203   1.276       .  A
O190       Co198   2.023       .  S
O191        C203   1.260       .  A
O191       Co196   1.955       .  S
O192        C202   1.270       .  A
O192       Co195   1.901       .  S
O193        C200   1.276       .  A
O193       Co198   2.023       .  S
O194        C201   1.257       .  A
O194       Co197   1.994       .  S
Co195       O199   2.033       .  S
Co196       O199   2.055       .  S
Co197       O199   2.005       .  S
Co198       O199   2.012       .  S
C200       C3193   1.475       .  S
C201       C3217   1.461       .  S
C202       C3253   1.479       .  S
C203       C3169   1.459       .  S
O204        C212   1.290       .  A
O204       Co224   2.077       .  S
O205        C213   1.263       .  A
O205       Co225   2.002       .  S
O206        C214   1.246       .  A
O206       Co226   2.001       .  S
O207        C215   1.264       .  A
O207       Co227   1.978       .  S
O208        C214   1.260       .  A
O208       Co225   2.023       .  S
O209        C215   1.272       .  A
O209       Co224   2.017       .  S
O210        C213   1.258       .  A
O210       Co227   1.970       .  S
O211        C212   1.265       .  A
O211       Co226   1.907       .  S
C212       C3244   1.472       .  S
C213       C3145   1.472       .  S
C214       C3157   1.480       .  S
C215       C3136   1.493       .  S
O216        C229   1.247       .  A
O216       Co224   1.996       .  S
O217        C230   1.272       .  A
O217       Co225   2.001       .  S
O218        C231   1.290       .  A
O218       Co226   2.085       .  S
O219        C232   1.255       .  A
O219       Co227   1.947       .  S
O220        C232   1.273       .  A
O220       Co225   2.034       .  S
O221        C231   1.262       .  A
O221       Co224   1.914       .  S
O222        C229   1.254       .  A
O222       Co227   1.985       .  S
O223        C230   1.274       .  A
O223       Co226   2.014       .  S
Co224       O228   2.033       .  S
Co225       O228   2.109       .  S
Co226       O228   2.017       .  S
Co227       O228   2.080       .  S
C229       C3109   1.458       .  S
C230       C3085   1.492       .  S
C231       C3121   1.472       .  S
C232       C3097   1.477       .  S
O233        C241   1.299       .  A
O233       Co253   2.093       .  S
O234        C242   1.249       .  A
O234       Co254   1.986       .  S
O235        C243   1.298       .  A
O235       Co255   2.073       .  S
O236        C244   1.256       .  A
O236       Co256   1.972       .  S
O237        C243   1.279       .  A
O237       Co254   1.910       .  S
O238        C244   1.262       .  A
O238       Co253   1.981       .  S
O239        C242   1.265       .  A
O239       Co256   2.038       .  S
O240        C241   1.269       .  A
O240       Co255   1.877       .  S
C241       C3184   1.481       .  S
C242       C3073   1.496       .  S
C243       C3133   1.476       .  S
C244       C3013   1.455       .  S
O245        C258   1.264       .  A
O245       Co253   1.983       .  S
O246        C259   1.255       .  A
O246       Co254   1.981       .  S
O247        C260   1.282       .  A
O247       Co255   2.048       .  S
O248        C261   1.273       .  A
O248       Co256   1.967       .  S
O249        C261   1.282       .  A
O249       Co254   2.010       .  S
O250        C260   1.270       .  A
O250       Co253   1.932       .  S
O251        C258   1.283       .  A
O251       Co256   2.058       .  S
O252        C259   1.253       .  A
O252       Co255   1.957       .  S
Co253       O257   2.005       .  S
Co254       O257   1.880       .  S
Co255       O257   2.069       .  S
Co256       O257   2.057       .  S
C258       C3037   1.510       .  S
C259       C3061   1.467       .  S
C260       C3025   1.464       .  S
C261       C3049   1.456       .  S
O262        C270   1.267       .  A
O262       Co282   1.925       .  S
O263        C271   1.213       .  A
O263       Co283   1.801       .  S
O264        C272   1.261       .  A
O264       Co284   1.981       .  S
O265        C273   1.259       .  A
O265       Co285   1.989       .  S
O266        C272   1.253       .  A
O266       Co283   1.971       .  S
O267        C273   1.260       .  A
O267       Co282   1.997       .  S
O268        C271   1.246       .  A
O268       Co285   2.124       .  S
O269        C270   1.290       .  A
O269       Co284   2.096       .  S
C270       C3232   1.488   1_455  S
C271       C2968   1.501       .  S
C272       C2977   1.452       .  S
C273       C2941   1.489       .  S
O274        C287   1.272       .  A
O274       Co282   2.000       .  S
O275        C288   1.260       .  A
O275       Co283   1.977       .  S
O276        C289   1.263   1_655  A
O276       Co284   1.901   1_655  S
O277        C290   1.268       .  A
O277       Co285   2.002       .  S
O278        C290   1.263       .  A
O278       Co283   1.959       .  S
O279        C289   1.294       .  A
O279       Co282   2.093       .  S
O280        C287   1.266       .  A
O280       Co285   1.990       .  S
O281        C288   1.269       .  A
O281       Co284   2.017       .  S
Co282       O286   2.027       .  S
Co283       O286   2.038       .  S
Co284       O286   2.050       .  S
Co285       O286   2.210       .  S
C287       C2956   1.478       .  S
C288       C3004   1.483       .  S
C289       C3124   1.476   1_455  S
C290       C2989   1.461       .  S
O291        C299   1.292       .  A
O291       Co311   2.069       .  S
O292        C300   1.249       .  A
O292       Co312   1.986       .  S
O293        C301   1.303       .  A
O293       Co313   2.092       .  S
O294        C302   1.262       .  A
O294       Co314   1.977       .  S
O295        C301   1.279       .  A
O295       Co312   1.892       .  S
O296        C302   1.267       .  A
O296       Co311   1.989       .  S
O297        C300   1.269       .  A
O297       Co314   2.047       .  S
O298        C299   1.269       .  A
O298       Co313   1.892       .  S
C299       C3112   1.457   1_554  S
C300       C2929   1.500       .  S
C301       C3001   1.490       .  S
C302       C2884   1.472       .  S
O303        C316   1.254       .  A
O303       Co311   1.979       .  S
O304        C317   1.253       .  A
O304       Co312   1.982       .  S
O305        C318   1.287       .  A
O305       Co313   2.062       .  S
O306        C319   1.274       .  A
O306       Co314   1.968       .  S
O307        C319   1.283       .  A
O307       Co312   2.005       .  S
O308        C318   1.270       .  A
O308       Co311   1.919       .  S
O309        C316   1.280       .  A
O309       Co314   2.066       .  S
O310        C317   1.253       .  A
O310       Co313   1.976       .  S
Co311       O315   1.980       .  S
Co312       O315   1.867       .  S
Co313       O315   2.077       .  S
Co314       O315   2.075       .  S
C316       C2893   1.497       .  S
C317       C2917   1.475       .  S
C318       C3064   1.470       .  S
C319       C2908   1.457       .  S
O320        C328   1.244       .  A
O320       Co340   1.951       .  S
O321        C329   1.256       .  A
O321       Co341   1.969       .  S
O322        C330   1.290       .  A
O322       Co342   2.079       .  S
O323        C331   1.275       .  A
O323       Co343   2.062       .  S
O324        C330   1.269       .  A
O324       Co341   1.918       .  S
O325        C331   1.243       .  A
O325       Co340   1.936       .  S
O326        C329   1.283       .  A
O326       Co343   2.072       .  S
O327        C328   1.254       .  A
O327       Co342   2.013       .  S
C328       C3028   1.468       .  S
C329       C2869   1.500       .  S
C330       C2920   1.485       .  S
C331       C2833   1.492       .  S
O332        C345   1.273       .  A
O332       Co340   2.023       .  S
O333        C346   1.285       .  A
O333       Co341   2.080       .  S
O334        C347   1.265       .  A
O334       Co342   1.954       .  S
O335        C348   1.252       .  A
O335       Co343   1.963       .  S
O336        C348   1.269       .  A
O336       Co341   2.017       .  S
O337        C347   1.284       .  A
O337       Co340   2.047       .  S
O338        C345   1.257       .  A
O338       Co343   1.969       .  S
O339        C346   1.261       .  A
O339       Co342   1.879       .  S
Co340       O344   2.010       .  S
Co341       O344   2.007       .  S
Co342       O344   2.023       .  S
Co343       O344   2.080       .  S
C345       C2845   1.479       .  S
C346       C2980   1.445       .  S
C347       C3208   1.488       .  S
C348       C2857   1.473       .  S
O349        C357   1.251       .  A
O349       Co369   1.944       .  S
O350        C358   1.260       .  A
O350       Co370   1.881       .  S
O351        C359   1.281       .  A
O351       Co371   2.044       .  S
O352        C360   1.262       .  A
O352       Co372   2.011       .  S
O353        C359   1.264       .  A
O353       Co370   1.970       .  S
O354        C360   1.257       .  A
O354       Co369   1.969       .  S
O355        C358   1.284       .  A
O355       Co372   2.085       .  S
O356        C357   1.263       .  A
O356       Co371   2.016       .  S
C357       C2809   1.461       .  S
C358       C2773   1.450       .  S
C359       C2785   1.492       .  S
C360       C2761   1.470       .  S
O361        C374   1.275       .  A
O361       Co369   1.998       .  S
O362        C375   1.258       .  A
O362       Co370   1.990       .  S
O363        C376   1.265       .  A
O363       Co371   1.964       .  S
O364        C377   1.272       .  A
O364       Co372   1.910       .  S
O365        C377   1.296       .  A
O365       Co370   2.080       .  S
O366        C376   1.278       .  A
O366       Co369   2.023       .  S
O367        C374   1.273       .  A
O367       Co372   1.976       .  S
O368        C375   1.256       .  A
O368       Co371   1.980       .  S
Co369       O373   1.993       .  S
Co370       O373   1.985       .  S
Co371       O373   2.074       .  S
Co372       O373   2.035       .  S
C374       C2737   1.468       .  S
C375       C2797   1.478       .  S
C376       C2824   1.465       .  S
C377       C2749   1.490       .  S
O378        C386   1.284       .  A
O378       Co398   2.056       .  S
O379        C387   1.261       .  A
O379       Co399   1.990       .  S
O380        C388   1.263       .  A
O380       Co400   1.886       .  S
O381        C389   1.256       .  A
O381       Co401   1.931       .  S
O382        C388   1.296       .  A
O382       Co399   2.111       .  S
O383        C389   1.276       .  A
O383       Co398   2.027       .  S
O384        C387   1.258       .  A
O384       Co401   1.991       .  S
O385        C386   1.266       .  A
O385       Co400   1.975       .  S
C386       C2713   1.489       .  S
C387       C2689   1.476       .  S
C388       C2680   1.474       .  S
C389       C2701   1.458       .  S
O390        C403   1.245       .  A
O390       Co398   1.946       .  S
O391        C404   1.264       .  A
O391       Co399   1.901       .  S
O392        C405   1.262       .  A
O392       Co400   2.024       .  S
O393        C406   1.275       .  A
O393       Co401   2.028       .  S
O394        C406   1.263       .  A
O394       Co399   1.976       .  S
O395        C405   1.250       .  A
O395       Co398   1.973       .  S
O396        C403   1.274       .  A
O396       Co401   2.060       .  S
O397        C404   1.292       .  A
O397       Co400   2.092       .  S
Co398       O402   2.014       .  S
Co399       O402   1.999       .  S
Co400       O402   2.015       .  S
Co401       O402   2.087       .  S
C403       C2728   1.496       .  S
C404       C2665   1.468       .  S
C405       C2788   1.486       .  S
C406       C2653   1.493       .  S
O407        C415   1.280       .  A
O407       Co427   2.017       .  S
O408        C416   1.268       .  A
O408       Co428   2.016       .  S
O409        C417   1.259       .  A
O409       Co429   1.876       .  S
O410        C418   1.261       .  A
O410       Co430   1.964       .  S
O411        C417   1.291       .  A
O411       Co428   2.091       .  S
O412        C418   1.278       .  A
O412       Co427   2.037       .  S
O413        C416   1.256       .  A
O413       Co430   1.990       .  S
O414        C415   1.260       .  A
O414       Co429   1.941       .  S
C415       C2812   1.477       .  S
C416       C2605   1.490       .  S
C417       C2668   1.461       .  S
C418       C2641   1.485       .  S
O419        C432   1.252       .  A
O419       Co427   1.954       .  S
O420        C433   1.266       .  A
O420       Co428   1.891       .  S
O421        C434   1.258       .  A
O421       Co429   2.010       .  S
O422        C435   1.284       .  A
O422       Co430   2.073       .  S
O423        C435   1.254       .  A
O423       Co428   1.949       .  S
O424        C434   1.260       .  A
O424       Co427   1.986       .  S
O425        C432   1.276       .  A
O425       Co430   2.057       .  S
O426        C433   1.284       .  A
O426       Co429   2.068       .  S
Co427       O431   2.018       .  S
Co428       O431   2.002       .  S
Co429       O431   2.009       .  S
Co430       O431   2.077       .  S
C432       C2617   1.503       .  S
C433       C2581   1.453       .  S
C434       C2629   1.488       .  S
C435       C2596   1.504       .  S
O436        C444   1.276       .  A
O436       Co456   2.015       .  S
O437        C445   1.249       .  A
O437       Co457   1.995       .  S
O438        C446   1.298       .  A
O438       Co458   2.060       .  S
O439        C447   1.284       .  A
O439       Co459   2.088       .  S
O440        C446   1.273       .  A
O440       Co457   1.902       .  S
O441        C447   1.256       .  A
O441       Co456   1.958       .  S
O442        C445   1.262       .  A
O442       Co459   2.027       .  S
O443        C444   1.260   1_655  A
O443       Co458   1.904   1_655  S
C444       C2776   1.464   1_455  S
C445       C2533   1.495       .  S
C446       C2545   1.476       .  S
C447       C2512   1.515       .  S
O448        C461   1.254       .  A
O448       Co456   1.965       .  S
O449        C462   1.252       .  A
O449       Co457   2.011       .  S
O450        C463   1.260       .  A
O450       Co458   1.996       .  S
O451        C464   1.258       .  A
O451       Co459   1.970       .  S
O452        C464   1.268       .  A
O452       Co457   2.002       .  S
O453        C463   1.259       .  A
O453       Co456   1.994       .  S
O454        C461   1.248       .  A
O454       Co459   1.979       .  S
O455        C462   1.244       .  A
O455       Co458   1.961       .  S
Co456       O460   2.117       .  S
Co457       O460   1.931       .  S
Co458       O460   2.094       .  S
Co459       O460   2.135       .  S
C461       C2521   1.465       .  S
C462       C2569   1.475   1_455  S
C463       C2716   1.490   1_455  S
C464       C2557   1.463       .  S
O465        C473   1.253       .  A
O465       Co485   1.958       .  S
O466        C474   1.246       .  A
O466       Co486   1.951       .  S
O467        C475   1.285       .  A
O467       Co487   2.109       .  S
O468        C476   1.277       .  A
O468       Co488   2.088       .  S
O469        C475   1.260       .  A
O469       Co486   1.911       .  S
O470        C476   1.240       .  A
O470       Co485   1.942       .  S
O471        C474   1.268       .  A
O471       Co488   2.042       .  S
O472        C473   1.268       .  A
O472       Co487   2.035       .  S
C473       C2632   1.489   1_545  S
C474       C2485   1.484       .  S
C475       C2497   1.489       .  S
C476       C2461   1.494       .  S
O477        C490   1.278       .  A
O477       Co485   2.038       .  S
O478        C491   1.308       .  A
O478       Co486   2.117       .  S
O479        C492   1.273       .  A
O479       Co487   1.974       .  S
O480        C493   1.282       .  A
O480       Co488   2.051       .  S
O481        C493   1.293       .  A
O481       Co486   2.020       .  S
O482        C492   1.280       .  A
O482       Co485   2.021       .  S
O483        C490   1.271       .  A
O483       Co488   1.990       .  S
O484        C491   1.271       .  A
O484       Co487   1.899       .  S
Co485       O489   1.975       .  S
Co486       O489   1.966       .  S
Co487       O489   2.036       .  S
Co488       O489   2.101       .  S
C490       C2449   1.491       .  S
C491       C2548   1.471       .  S
C492       C2764   1.493       .  S
C493       C2473   1.503       .  S
O494        C502   1.275       .  A
O494       Co514   2.059       .  S
O495        C503   1.247       .  A
O495       Co515   1.956       .  S
O496        C504   1.276       .  A
O496       Co516   2.007       .  S
O497        C505   1.258       .  A
O497       Co517   1.957       .  S
O498        C504   1.266       .  A
O498       Co515   1.983       .  S
O499        C505   1.291       .  A
O499       Co514   2.052       .  S
O500        C503   1.260       .  A
O500       Co517   2.002       .  S
O501        C502   1.240       .  A
O501       Co516   1.979       .  S
C502       C2677   1.483       .  S
C503       C2425   1.466       .  S
C504       C2572   1.465       .  S
C505       C2401   1.468       .  S
O506        C519   1.249       .  A
O506       Co514   1.924       .  S
O507        C520   1.245       .  A
O507       Co515   1.942       .  S
O508        C521   1.285       .  A
O508       Co516   1.996       .  S
O509        C522   1.271       .  A
O509       Co517   2.038       .  S
O510        C522   1.246       .  A
O510       Co515   1.961       .  S
O511        C521   1.266       .  A
O511       Co514   1.915       .  S
O512        C519   1.263       .  A
O512       Co517   2.007       .  S
O513        C520   1.263       .  A
O513       Co516   2.021       .  S
Co514       O518   1.985       .  S
Co515       O518   2.008       .  S
Co516       O518   2.063       .  S
Co517       O518   2.128       .  S
C519       C2413   1.460       .  S
C520       C2500   1.474       .  S
C521       C2584   1.461       .  S
C522       C2437   1.457       .  S
O523        C531   1.265       .  A
O523       Co543   1.889       .  S
O524        C532   1.246       .  A
O524       Co544   1.923       .  S
O525        C533   1.268       .  A
O525       Co545   2.058       .  S
O526        C534   1.266       .  A
O526       Co546   1.991       .  S
O527        C533   1.247       .  A
O527       Co544   1.953       .  S
O528        C534   1.276       .  A
O528       Co543   1.999       .  S
O529        C532   1.273       .  A
O529       Co546   2.050       .  S
O530        C531   1.295       .  A
O530       Co545   2.109       .  S
C531       C2389   1.478       .  S
C532       C2353   1.476       .  S
C533       C2365   1.500       .  S
C534       C2380   1.487       .  S
O535        C548   1.270       .  A
O535       Co543   2.001       .  S
O536        C549   1.277       .  A
O536       Co544   2.016       .  S
O537        C550   1.275       .  A
O537       Co545   1.902       .  S
O538        C551   1.268       .  A
O538       Co546   1.979       .  S
O539        C551   1.275       .  A
O539       Co544   2.009       .  S
O540        C550   1.300       .  A
O540       Co543   2.101       .  S
O541        C548   1.273       .  A
O541       Co546   2.005       .  S
O542        C549   1.274       .  A
O542       Co545   1.980       .  S
Co543       O547   1.976       .  S
Co544       O547   1.988       .  S
Co545       O547   2.052       .  S
Co546       O547   2.094       .  S
C548       C2476   1.512       .  S
C549       C2341   1.476       .  S
C550       C2536   1.493       .  S
C551       C2329   1.469       .  S
O552        C560   1.264       .  A
O552       Co572   1.901       .  S
O553        C561   1.256       .  A
O553       Co573   1.960       .  S
O554        C562   1.267       .  A
O554       Co574   2.034       .  S
O555        C563   1.277       .  A
O555       Co575   2.033       .  S
O556        C562   1.258       .  A
O556       Co573   1.976       .  S
O557        C563   1.263       .  A
O557       Co572   1.965       .  S
O558        C561   1.264       .  A
O558       Co575   2.017       .  S
O559        C560   1.291       .  A
O559       Co574   2.097       .  S
C560       C2317   1.472       .  S
C561       C2281   1.481       .  S
C562       C2305   1.500       .  S
C563       C2293   1.479       .  S
O564        C577   1.266       .  A
O564       Co572   1.995       .  S
O565        C578   1.280       .  A
O565       Co573   2.013       .  S
O566        C579   1.271       .  A
O566       Co574   1.915       .  S
O567        C580   1.273       .  A
O567       Co575   1.988       .  S
O568        C580   1.277       .  A
O568       Co573   2.014       .  S
O569        C579   1.300       .  A
O569       Co572   2.092       .  S
O570        C577   1.264       .  A
O570       Co575   1.981       .  S
O571        C578   1.274       .  A
O571       Co574   1.985       .  S
Co572       O576   2.003       .  S
Co573       O576   2.003       .  S
Co574       O576   2.040       .  S
Co575       O576   2.099       .  S
C577       C2464   1.503       .  S
C578       C2269   1.481       .  S
C579       C2620   1.501       .  S
C580       C2257   1.492       .  S
O581        C589   1.262       .  A
O581       Co601   1.965       .  S
O582        C590   1.242       .  A
O582       Co602   1.941       .  S
O583        C591   1.264       .  A
O583       Co603   2.031       .  S
O584        C592   1.293       .  A
O584       Co604   2.112       .  S
O585        C591   1.250       .  A
O585       Co602   1.956       .  S
O586        C592   1.261       .  A
O586       Co601   1.907       .  S
O587        C590   1.260       .  A
O587       Co604   2.024       .  S
O588        C589   1.279       .  A
O588       Co603   2.041       .  S
C589       C2221   1.482       .  S
C590       C2209   1.459       .  S
C591       C2236   1.481       .  S
C592       C2245   1.477       .  S
O593        C606   1.299       .  A
O593       Co601   2.093       .  S
O594        C607   1.278       .  A
O594       Co602   2.017       .  S
O595        C608   1.260       .  A
O595       Co603   1.977       .  S
O596        C609   1.277       .  A
O596       Co604   1.994       .  S
O597        C609   1.282       .  A
O597       Co602   2.047       .  S
O598        C608   1.263       .  A
O598       Co601   2.011       .  S
O599        C606   1.269       .  A
O599       Co604   1.889       .  S
O600        C607   1.270       .  A
O600       Co603   1.969       .  S
Co601       O605   2.019       .  S
Co602       O605   2.000       .  S
Co603       O605   2.080       .  S
Co604       O605   2.043       .  S
C606       C2752   1.473       .  S
C607       C3325   1.488       .  S
C608       C3532   1.497       .  S
C609       C2509   1.518       .  S
O610        C618   1.285       .  A
O610       Co630   2.098       .  S
O611        C619   1.266       .  A
O611       Co631   2.025       .  S
O612        C620   1.266       .  A
O612       Co632   1.955       .  S
O613        C621   1.260       .  A
O613       Co633   1.956       .  S
O614        C620   1.282       .  A
O614       Co631   2.025       .  S
O615        C621   1.268       .  A
O615       Co630   2.007       .  S
O616        C619   1.251       .  A
O616       Co633   1.959       .  S
O617        C618   1.259       .  A
O617       Co632   1.896       .  S
C618       C2197   1.468       .  S
C619       C2176   1.464       .  S
C620       C2212   1.468       .  S
C621       C2185   1.470       .  S
O622        C635   1.269       .  A
O622       Co630   1.968       .  S
O623        C636   1.256       .  A
O623       Co631   1.980       .  S
O624        C637   1.287       .  A
O624       Co632   2.063       .  S
O625        C638   1.284       .  A
O625       Co633   2.042       .  S
O626        C638   1.262       .  A
O626       Co631   1.952       .  S
O627        C637   1.278       .  A
O627       Co630   1.917       .  S
O628        C635   1.273       .  A
O628       Co633   1.988       .  S
O629        C636   1.255       .  A
O629       Co632   1.969       .  S
Co630       O634   2.032       .  S
Co631       O634   2.043       .  S
Co632       O634   1.978       .  S
Co633       O634   1.980       .  S
C635       C2149   1.462       .  S
C636       C2524   1.468       .  S
C637       C2704   1.478       .  S
C638       C2161   1.463       .  S
O639        C647   1.275       .  A
O639       Co659   2.026       .  S
O640        C648   1.263       .  A
O640       Co660   2.020       .  S
O641        C649   1.268       .  A
O641       Co661   1.882       .  S
O642        C650   1.254       .  A
O642       Co662   1.950       .  S
O643        C649   1.292       .  A
O643       Co660   2.099       .  S
O644        C650   1.271       .  A
O644       Co659   2.032       .  S
O645        C648   1.253       .  A
O645       Co662   1.966       .  S
O646        C647   1.268       .  A
O646       Co661   1.976       .  S
C647       C2125   1.492       .  S
C648       C2296   1.465       .  S
C649       C2137   1.470       .  S
C650       C2116   1.461       .  S
O651        C664   1.261       .  A
O651       Co659   1.957       .  S
O652        C665   1.270       .  A
O652       Co660   1.892       .  S
O653        C666   1.268       .  A
O653       Co661   2.011       .  S
O654        C667   1.280       .  A
O654       Co662   2.031       .  S
O655        C667   1.276       .  A
O655       Co660   1.983       .  S
O656        C666   1.264       .  A
O656       Co659   1.981       .  S
O657        C664   1.275       .  A
O657       Co662   2.029       .  S
O658        C665   1.293       .  A
O658       Co661   2.097       .  S
Co659       O663   2.047       .  S
Co660       O663   2.012       .  S
Co661       O663   1.995       .  S
Co662       O663   2.014       .  S
C664       C2881   1.477       .  S
C665       C2740   1.470       .  S
C666       C3100   1.493       .  S
C667       C2452   1.501       .  S
O668        C676   1.297       .  A
O668       Co688   2.120       .  S
O669        C677   1.267       .  A
O669       Co689   2.035       .  S
O670        C678   1.264       .  A
O670       Co690   1.977       .  S
O671        C679   1.248       .  A
O671       Co691   1.956       .  S
O672        C678   1.266       .  A
O672       Co689   2.000       .  S
O673        C679   1.258       .  A
O673       Co688   2.020       .  S
O674        C677   1.244       .  A
O674       Co691   1.918       .  S
O675        C676   1.262       .  A
O675       Co690   1.887       .  S
C676       C2077   1.484       .  S
C677       C2065   1.470       .  S
C678       C2089   1.460       .  S
C679       C2101   1.470       .  S
O680        C693   1.276       .  A
O680       Co688   1.985       .  S
O681        C694   1.260       .  A
O681       Co689   1.969       .  S
O682        C695   1.296       .  A
O682       Co690   2.076       .  S
O683        C696   1.276       .  A
O683       Co691   2.021       .  S
O684        C696   1.262       .  A
O684       Co689   1.956       .  S
O685        C695   1.271       .  A
O685       Co688   1.889       .  S
O686        C693   1.276       .  A
O686       Co691   1.995       .  S
O687        C694   1.265       .  A
O687       Co690   2.004       .  S
Co688       O692   2.039       .  S
Co689       O692   2.075       .  S
Co690       O692   1.980       .  S
Co691       O692   1.969       .  S
C693       C2692   1.479       .  S
C694       C2848   1.476       .  S
C695       C3172   1.466       .  S
C696       C2404   1.459       .  S
O697        C705   1.259       .  A
O697       Co717   1.888       .  S
O698        C706   1.244       .  A
O698       Co718   1.939       .  S
O699        C707   1.262       .  A
O699       Co719   2.020       .  S
O700        C708   1.272       .  A
O700       Co720   2.003       .  S
O701        C707   1.248       .  A
O701       Co718   1.947       .  S
O702        C708   1.272       .  A
O702       Co717   1.991       .  S
O703        C706   1.265       .  A
O703       Co720   2.044       .  S
O704        C705   1.289       .  A
O704       Co719   2.108       .  S
C705       C2032   1.478       .  S
C706       C2044   1.471       .  S
C707       C2056   1.473       .  S
C708       C2017   1.484       .  S
O709        C722   1.260       .  A
O709       Co717   1.970       .  S
O710        C723   1.276       .  A
O710       Co718   2.019       .  S
O711        C724   1.271       .  A
O711       Co719   1.890       .  S
O712        C725   1.271       .  A
O712       Co720   1.967       .  S
O713        C725   1.279       .  A
O713       Co718   2.024       .  S
O714        C724   1.304       .  A
O714       Co717   2.112       .  S
O715        C722   1.271       .  A
O715       Co720   2.004       .  S
O716        C723   1.273       .  A
O716       Co719   1.982       .  S
Co717       O721   1.983       .  S
Co718       O721   1.985       .  S
Co719       O721   2.053       .  S
Co720       O721   2.103       .  S
C722       C3376   1.500       .  S
C723       C3088   1.487       .  S
C724       C3520   1.487       .  S
C725       C2953   1.473       .  S
O726        C734   1.293       .  A
O726       Co746   2.112       .  S
O727        C735   1.268       .  A
O727       Co747   2.025       .  S
O728        C736   1.265       .  A
O728       Co748   1.971       .  S
O729        C737   1.247       .  A
O729       Co749   1.950       .  S
O730        C736   1.274       .  A
O730       Co747   2.017       .  S
O731        C737   1.261       .  A
O731       Co746   2.036       .  S
O732        C735   1.255       .  A
O732       Co749   1.951       .  S
O733        C734   1.266       .  A
O733       Co748   1.900       .  S
C734       C2005   1.491       .  S
C735       C2284   1.481       .  S
C736       C2113   1.480       .  S
C737       C1984   1.485       .  S
O738        C751   1.272       .  A
O738       Co746   1.980       .  S
O739        C752   1.263       .  A
O739       Co747   1.984       .  S
O740        C753   1.291       .  A
O740       Co748   2.060       .  S
O741        C754   1.273       .  A
O741       Co749   1.998       .  S
O742        C754   1.263       .  A
O742       Co747   1.964       .  S
O743        C753   1.272       .  A
O743       Co746   1.903       .  S
O744        C751   1.283       .  A
O744       Co749   2.050       .  S
O745        C752   1.270       .  A
O745       Co748   2.023       .  S
Co746       O750   2.055       .  S
Co747       O750   2.081       .  S
Co748       O750   1.988       .  S
Co749       O750   1.995       .  S
C751       C1993   1.493       .  S
C752       C2896   1.507       .  S
C753       C3052   1.474       .  S
C754       C1969   1.457       .  S
O755        C763   1.262       .  A
O755       Co775   1.997       .  S
O756        C764   1.271       .  A
O756       Co776   1.920       .  S
O757        C765   1.264       .  A
O757       Co777   1.869       .  S
O758        C766   1.243       .  A
O758       Co778   1.929       .  S
O759        C765   1.306       .  A
O759       Co776   2.096       .  S
O760        C766   1.267       .  A
O760       Co775   2.054       .  S
O761        C764   1.289       .  A
O761       Co778   2.060       .  S
O762        C763   1.260       .  A
O762       Co777   1.999       .  S
C763       C1957   1.478       .  S
C764       C1933   1.497       .  S
C765       C2356   1.471       .  S
C766       C2041   1.477       .  S
O767        C780   1.255       .  A
O767       Co775   1.947       .  S
O768        C781   1.251       .  A
O768       Co776   1.967       .  S
O769        C782   1.259       .  A
O769       Co777   1.976       .  S
O770        C783   1.253       .  A
O770       Co778   1.967       .  S
O771        C783   1.254       .  A
O771       Co776   1.987       .  S
O772        C782   1.264       .  A
O772       Co775   1.983       .  S
O773        C780   1.275       .  A
O773       Co778   2.045       .  S
O774        C781   1.252       .  A
O774       Co777   1.985       .  S
Co775       O779   2.110       .  S
Co776       O779   2.065       .  S
Co777       O779   1.933       .  S
Co778       O779   2.119       .  S
C780       C2944   1.480       .  S
C781       C1945   1.458       .  S
C782       C3220   1.480       .  S
C783       C1921   1.477       .  S
O784        C792   1.256       .  A
O784       Co804   1.999       .  S
O785        C793   1.268       .  A
O785       Co805   1.886       .  S
O786        C794   1.261       .  A
O786       Co806   2.001       .  S
O787        C795   1.294       .  A
O787       Co807   2.054       .  S
O788        C794   1.260       .  A
O788       Co805   2.007       .  S
O789        C795   1.270       .  A
O789       Co804   1.905       .  S
O790        C793   1.299       .  A
O790       Co807   2.071       .  S
O791        C792   1.271       .  A
O791       Co806   2.035       .  S
C792       C1897   1.501       .  S
C793       C2188   1.462       .  S
C794       C1909   1.491       .  S
C795       C1864   1.475       .  S
O796        C809   1.251       .  A
O796       Co804   1.981       .  S
O797        C810   1.270       .  A
O797       Co805   2.008       .  S
O798        C811   1.263       .  A
O798       Co806   1.972       .  S
O799        C812   1.250       .  A
O799       Co807   1.965       .  S
O800        C812   1.251       .  A
O800       Co805   1.986       .  S
O801        C811   1.270       .  A
O801       Co804   2.001       .  S
O802        C809   1.258       .  A
O802       Co807   2.015       .  S
O803        C810   1.273       .  A
O803       Co806   2.002       .  S
Co804       O808   1.957       .  S
Co805       O808   1.948       .  S
Co806       O808   2.107       .  S
Co807       O808   2.242       .  S
C809       C1873   1.497       .  S
C810       C2932   1.504       .  S
C811       C2992   1.479       .  S
C812       C1888   1.472       .  S
O813        C821   1.260       .  A
O813       Co833   2.026       .  S
O814        C822   1.275       .  A
O814       Co834   2.025       .  S
O815        C823   1.247       .  A
O815       Co835   1.949       .  S
O816        C824   1.262       .  A
O816       Co836   1.892       .  S
O817        C823   1.266       .  A
O817       Co834   2.044       .  S
O818        C824   1.293       .  A
O818       Co833   2.114       .  S
O819        C822   1.261       .  A
O819       Co836   1.959       .  S
O820        C821   1.247       .  A
O820       Co835   1.953       .  S
C821       C1849   1.480       .  S
C822       C1825   1.462       .  S
C823       C1813   1.492       .  S
C824       C1837   1.481       .  S
O825        C838   1.269       .  A
O825       Co833   1.888       .  S
O826        C839   1.271       .  A
O826       Co834   1.977       .  S
O827        C840   1.281       .  A
O827       Co835   2.039       .  S
O828        C841   1.265       .  A
O828       Co836   2.012       .  S
O829        C841   1.264       .  A
O829       Co834   1.988       .  S
O830        C840   1.275       .  A
O830       Co833   1.981       .  S
O831        C838   1.303       .  A
O831       Co836   2.104       .  S
O832        C839   1.280       .  A
O832       Co835   2.033       .  S
Co833       O837   2.049       .  S
Co834       O837   2.098       .  S
Co835       O837   2.007       .  S
Co836       O837   2.025       .  S
C838       C1792   1.489       .  S
C839       C1804   1.499       .  S
C840       C1996   1.508       .  S
C841       C1876   1.501       .  S
O842        C850   1.282       .  A
O842       Co862   2.047       .  S
O843        C851   1.252       .  A
O843       Co863   1.970       .  S
O844        C852   1.271       .  A
O844       Co864   2.012       .  S
O845        C853   1.282       .  A
O845       Co865   2.036       .  S
O846        C852   1.265       .  A
O846       Co863   1.980       .  S
O847        C853   1.261       .  A
O847       Co862   1.926       .  S
O848        C851   1.258       .  A
O848       Co865   1.988       .  S
O849        C850   1.274       .  A
O849       Co864   1.940       .  S
C850       C2104   1.466       .  S
C851       C1741   1.480       .  S
C852       C1777   1.484       .  S
C853       C1756   1.472       .  S
O854        C867   1.258       .  A
O854       Co862   2.019       .  S
O855        C868   1.270       .  A
O855       Co863   1.985       .  S
O856        C869   1.300       .  A
O856       Co864   2.082       .  S
O857        C870   1.283       .  A
O857       Co865   2.036       .  S
O858        C870   1.282       .  A
O858       Co863   1.949       .  S
O859        C869   1.276       .  A
O859       Co862   1.906       .  S
O860        C867   1.246       .  A
O860       Co865   1.942       .  S
O861        C868   1.268       .  A
O861       Co864   1.995       .  S
Co862       O866   2.027       .  S
Co863       O866   1.998       .  S
Co864       O866   2.028       .  S
Co865       O866   2.081       .  S
C867       C1765   1.503       .  S
C868       C2608   1.485       .  S
C869       C2656   1.492       .  S
C870       C1729   1.481       .  S
O871        C879   1.275       .  A
O871       Co891   2.034       .  S
O872        C880   1.248       .  A
O872       Co892   1.968       .  S
O873        C881   1.245       .  A
O873       Co893   1.931       .  S
O874        C882   1.250       .  A
O874       Co894   2.006       .  S
O875        C881   1.268       .  A
O875       Co892   2.035       .  S
O876        C882   1.234       .  A
O876       Co891   1.944       .  S
O877        C880   1.255       .  A
O877       Co894   1.986       .  S
O878        C879   1.255       .  A
O878       Co893   1.949       .  S
C879       C1681   1.480       .  S
C880       C1717   1.480       .  S
C881       C1693   1.470       .  S
C882       C1852   1.458       .  S
O883        C896   1.273       .  A
O883       Co891   1.878       .  S
O884        C897   1.265       .  A
O884       Co892   1.978       .  S
O885        C898   1.266       .  A
O885       Co893   2.020       .  S
O886        C899   1.297       .  A
O886       Co894   2.071       .  S
O887        C899   1.274       .  A
O887       Co892   1.914       .  S
O888        C898   1.262       .  A
O888       Co891   1.976       .  S
O889        C896   1.294       .  A
O889       Co894   2.051       .  S
O890        C897   1.270       .  A
O890       Co893   2.015       .  S
Co891       O895   1.918       .  S
Co892       O895   1.963       .  S
Co893       O895   2.054       .  S
Co894       O895   2.244       .  S
C896       C1972   1.452       .  S
C897       C1705   1.490       .  S
C898       C2260   1.486       .  S
C899       C1768   1.486       .  S
O900        C908   1.263       .  A
O900       Co920   1.965       .  S
O901        C909   1.246       .  A
O901       Co921   1.985       .  S
O902        C910   1.261       .  A
O902       Co922   1.983       .  S
O903        C911   1.300       .  A
O903       Co923   2.113       .  S
O904        C910   1.266       .  A
O904       Co921   2.003       .  S
O905        C911   1.242       .  A
O905       Co920   1.918       .  S
O906        C909   1.277       .  A
O906       Co923   2.064       .  S
O907        C908   1.260       .  A
O907       Co922   1.958       .  S
C908       C1669   1.442       .  S
C909       C1936   1.491       .  S
C910       C2020   1.473       .  S
C911       C2368   1.483       .  S
O912        C925   1.265       .  A
O912       Co920   1.990       .  S
O913        C926   1.271       .  A
O913       Co921   2.018       .  S
O914        C927   1.264       .  A
O914       Co922   1.991       .  S
O915        C928   1.286       .  A
O915       Co923   1.971       .  S
O916        C928   1.282       .  A
O916       Co921   1.971       .  S
O917        C927   1.253       .  A
O917       Co920   1.956       .  S
O918        C925   1.268       .  A
O918       Co923   1.994       .  S
O919        C926   1.256       .  A
O919       Co922   1.978       .  S
Co920       O924   2.083       .  S
Co921       O924   2.067       .  S
Co922       O924   2.067       .  S
Co923       O924   2.054       .  S
C925       C1660   1.490       .  S
C926       C3388   1.496       .  S
C927       C3652   1.481       .  S
C928       C1648   1.458       .  S
O929        C937   1.270       .  A
O929       Co949   1.921       .  S
O930        C938   1.265       .  A
O930       Co950   1.979       .  S
O931        C939   1.305       .  A
O931       Co951   2.097       .  S
O932        C940   1.264       .  A
O932       Co952   2.025       .  S
O933        C939   1.280       .  A
O933       Co950   1.866       .  S
O934        C940   1.253       .  A
O934       Co949   1.982       .  S
O935        C938   1.271       .  A
O935       Co952   2.014       .  S
O936        C937   1.291       .  A
O936       Co951   2.078       .  S
C937       C1633   1.471       .  S
C938       C2173   1.472       .  S
C939       C1861   1.464       .  S
C940       C2233   1.481       .  S
O941        C954   1.279       .  A
O941       Co949   2.026       .  S
O942        C955   1.259       .  A
O942       Co950   2.004       .  S
O943        C956   1.280       .  A
O943       Co951   1.911       .  S
O944        C957   1.265       .  A
O944       Co952   1.969       .  S
O945        C957   1.283       .  A
O945       Co950   2.024       .  S
O946        C956   1.296       .  A
O946       Co949   2.050       .  S
O947        C954   1.264       .  A
O947       Co952   1.959       .  S
O948        C955   1.257       .  A
O948       Co951   1.989       .  S
Co949       O953   1.970       .  S
Co950       O953   1.894       .  S
Co951       O953   2.046       .  S
Co952       O953   2.037       .  S
C954       C3313   1.474       .  S
C955       C1801   1.487       .  S
C956       C3481   1.479       .  S
C957       C1624   1.465       .  S
O958        C966   1.269       .  A
O958       Co978   2.038       .  S
O959        C967   1.301       .  A
O959       Co979   2.134       .  S
O960        C968   1.244       .  A
O960       Co980   1.950       .  S
O961        C969   1.263       .  A
O961       Co981   1.971       .  S
O962        C968   1.257       .  A
O962       Co979   2.035       .  S
O963        C969   1.273       .  A
O963       Co978   2.014       .  S
O964        C967   1.262       .  A
O964       Co981   1.908       .  S
O965        C966   1.247       .  A
O965       Co980   1.932       .  S
C966       C1612   1.472       .  S
C967       C2308   1.501       .  S
C968       C1981   1.473       .  S
C969       C1597   1.483       .  S
O970        C983   1.264       .  A
O970       Co978   1.985       .  S
O971        C984   1.275       .  A
O971       Co979   1.979       .  S
O972        C985   1.276       .  A
O972       Co980   2.033       .  S
O973        C986   1.295       .  A
O973       Co981   2.095       .  S
O974        C986   1.268       .  A
O974       Co979   1.906       .  S
O975        C985   1.267       .  A
O975       Co978   1.973       .  S
O976        C983   1.268       .  A
O976       Co981   2.013       .  S
O977        C984   1.280       .  A
O977       Co980   2.033       .  S
Co978       O982   2.083       .  S
Co979       O982   2.053       .  S
Co980       O982   2.012       .  S
Co981       O982   2.014       .  S
C983       C3364   1.497       .  S
C984       C1789   1.486       .  S
C985       C3424   1.504       .  S
C986       C1588   1.481       .  S
O987        C995   1.264       .  A
O987      Co1007   1.992       .  S
O988        C996   1.266       .  A
O988      Co1008   1.990       .  S
O989        C997   1.313       .  A
O989      Co1009   2.143       .  S
O990        C998   1.313       .  A
O990      Co1010   2.145       .  S
O991        C997   1.275       .  A
O991      Co1008   1.857       .  S
O992        C998   1.273       .  A
O992      Co1007   1.850       .  S
O993        C996   1.257       .  A
O993      Co1010   1.979       .  S
O994        C995   1.257       .  A
O994      Co1009   1.959       .  S
C995       C1561   1.482       .  S
C996       C1684   1.484       .  S
C997       C1573   1.481       .  S
C998       C1840   1.470       .  S
O999       C1012   1.257       .  A
O999      Co1007   2.046       .  S
O1000      C1013   1.260       .  A
O1000     Co1008   2.030       .  S
O1001      C1014   1.272       .  A
O1001     Co1009   1.997       .  S
O1002      C1015   1.262       .  A
O1002     Co1010   1.970       .  S
O1003      C1015   1.273       .  A
O1003     Co1008   2.035       .  S
O1004      C1014   1.272       .  A
O1004     Co1007   2.008       .  S
O1005      C1012   1.242       .  A
O1005     Co1010   1.939       .  S
O1006      C1013   1.248       .  A
O1006     Co1009   1.956       .  S
Co1007     O1011   1.982       .  S
Co1008     O1011   1.983       .  S
Co1009     O1011   2.084       .  S
Co1010     O1011   2.072       .  S
C1012      C1585   1.493       .  S
C1013      C1657   1.492       .  S
C1014      C2344   1.489       .  S
C1015      C2272   1.484       .  S
O1016      C1024   1.262       .  A
O1016     Co1036   1.888       .  S
O1017      C1025   1.254       .  A
O1017     Co1037   1.937       .  S
O1018      C1026   1.261       .  A
O1018     Co1038   2.027       .  S
O1019      C1027   1.277       .  A
O1019     Co1039   2.045       .  S
O1020      C1026   1.248       .  A
O1020     Co1037   1.956       .  S
O1021      C1027   1.262       .  A
O1021     Co1036   1.965       .  S
O1022      C1025   1.260       .  A
O1022     Co1039   2.005       .  S
O1023      C1024   1.290       .  A
O1023     Co1038   2.100       .  S
C1024      C1537   1.473       .  S
C1025      C2068   1.468       .  S
C1026      C1780   1.482       .  S
C1027      C1552   1.487       .  S
O1028      C1041   1.265       .  A
O1028     Co1036   2.019       .  S
O1029      C1042   1.281       .  A
O1029     Co1037   2.040       .  S
O1030      C1043   1.272       .  A
O1030     Co1038   1.905       .  S
O1031      C1044   1.265       .  A
O1031     Co1039   1.968       .  S
O1032      C1044   1.276       .  A
O1032     Co1037   2.007       .  S
O1033      C1043   1.294       .  A
O1033     Co1036   2.065       .  S
O1034      C1041   1.257       .  A
O1034     Co1039   1.975       .  S
O1035      C1042   1.272       .  A
O1035     Co1038   1.974       .  S
Co1036     O1040   1.984       .  S
Co1037     O1040   1.987       .  S
Co1038     O1040   2.050       .  S
Co1039     O1040   2.081       .  S
C1041      C3280   1.483       .  S
C1042      C2593   1.488       .  S
C1043      C3616   1.471       .  S
C1044      C2416   1.471       .  S
O1045      C1053   1.265       .  A
O1045     Co1065   1.893       .  S
O1046      C1054   1.246       .  A
O1046     Co1066   1.940       .  S
O1047      C1055   1.259       .  A
O1047     Co1067   2.025       .  S
O1048      C1056   1.276       .  A
O1048     Co1068   2.043       .  S
O1049      C1055   1.243       .  A
O1049     Co1066   1.943       .  S
O1050      C1056   1.261       .  A
O1050     Co1065   1.975       .  S
O1051      C1054   1.264       .  A
O1051     Co1068   2.023       .  S
O1052      C1053   1.288       .  A
O1052     Co1067   2.096       .  S
C1053      C1564   1.472       .  S
C1054      C1513   1.466       .  S
C1055      C1828   1.471       .  S
C1056      C1525   1.478       .  S
O1057      C1070   1.266       .  A
O1057     Co1065   2.009       .  S
O1058      C1071   1.284       .  A
O1058     Co1066   2.037       .  S
O1059      C1072   1.269       .  A
O1059     Co1067   1.906       .  S
O1060      C1073   1.265       .  A
O1060     Co1068   1.973       .  S
O1061      C1073   1.275       .  A
O1061     Co1066   2.009       .  S
O1062      C1072   1.295       .  A
O1062     Co1065   2.079       .  S
O1063      C1070   1.254       .  A
O1063     Co1068   1.968       .  S
O1064      C1071   1.271       .  A
O1064     Co1067   1.973       .  S
Co1065     O1069   1.985       .  S
Co1066     O1069   1.976       .  S
Co1067     O1069   2.041       .  S
Co1068     O1069   2.082       .  S
C1070      C1948   1.466       .  S
C1071      C1885   1.477       .  S
C1072      C2332   1.485       .  S
C1073      C2152   1.477       .  S
O1074      C1082   1.290       .  A
O1074     Co1094   2.102       .  S
O1075      C1083   1.266       .  A
O1075     Co1095   2.026       .  S
O1076      C1084   1.271       .  A
O1076     Co1096   1.987       .  S
O1077      C1085   1.252       .  A
O1077     Co1097   1.967       .  S
O1078      C1084   1.274       .  A
O1078     Co1095   2.024       .  S
O1079      C1085   1.265       .  A
O1079     Co1094   2.025       .  S
O1080      C1083   1.249       .  A
O1080     Co1097   1.946       .  S
O1081      C1082   1.264       .  A
O1081     Co1096   1.892       .  S
C1082      C1501   1.464       .  S
C1083      C2092   1.461       .  S
C1084      C1549   1.489       .  S
C1085      C1489   1.471       .  S
O1086      C1099   1.278       .  A
O1086     Co1094   1.993       .  S
O1087      C1100   1.263       .  A
O1087     Co1095   1.985       .  S
O1088      C1101   1.298       .  A
O1088     Co1096   2.101       .  S
O1089      C1102   1.281       .  A
O1089     Co1097   2.043       .  S
O1090      C1102   1.264       .  A
O1090     Co1095   1.962       .  S
O1091      C1101   1.275       .  A
O1091     Co1094   1.912       .  S
O1092      C1099   1.278       .  A
O1092     Co1097   2.027       .  S
O1093      C1100   1.266       .  A
O1093     Co1096   1.994       .  S
Co1094     O1098   2.049       .  S
Co1095     O1098   2.089       .  S
Co1096     O1098   1.996       .  S
Co1097     O1098   2.009       .  S
C1099      C3040   1.497       .  S
C1100      C3265   1.493       .  S
C1101      C3472   1.502       .  S
C1102      C2836   1.478       .  S
O1103      C1111   1.267       .  A
O1103     Co1123   1.930       .  S
O1104      C1112   1.252       .  A
O1104     Co1124   1.960       .  S
O1105      C1113   1.276       .  A
O1105     Co1125   2.007       .  S
O1106      C1114   1.255       .  A
O1106     Co1126   1.988       .  S
O1107      C1113   1.268       .  A
O1107     Co1124   1.964       .  S
O1108      C1114   1.260       .  A
O1108     Co1123   2.011       .  S
O1109      C1112   1.262       .  A
O1109     Co1126   1.977       .  S
O1110      C1111   1.288       .  A
O1110     Co1125   2.080       .  S
C1111      C1528   1.482       .  S
C1112      C1696   1.458       .  S
C1113      C1465   1.470       .  S
C1114      C1576   1.482       .  S
O1115      C1128   1.272       .  A
O1115     Co1123   2.000       .  S
O1116      C1129   1.246       .  A
O1116     Co1124   1.948       .  S
O1117      C1130   1.275       .  A
O1117     Co1125   1.945       .  S
O1118      C1131   1.259       .  A
O1118     Co1126   1.989       .  S
O1119      C1131   1.258       .  A
O1119     Co1124   1.965       .  S
O1120      C1130   1.286       .  A
O1120     Co1123   2.051       .  S
O1121      C1128   1.265       .  A
O1121     Co1126   1.964       .  S
O1122      C1129   1.256       .  A
O1122     Co1125   2.011       .  S
Co1123     O1127   2.030       .  S
Co1124     O1127   2.069       .  S
Co1125     O1127   2.063       .  S
Co1126     O1127   2.095       .  S
C1128      C1645   1.460       .  S
C1129      C1477   1.462       .  S
C1130      C1924   1.484       .  S
C1131      C1453   1.474       .  S
O1132      C1140   1.293       .  A
O1132     Co1152   2.113       .  S
O1133      C1141   1.267       .  A
O1133     Co1153   2.029       .  S
O1134      C1142   1.264       .  A
O1134     Co1154   1.976       .  S
O1135      C1143   1.247       .  A
O1135     Co1155   1.957       .  S
O1136      C1142   1.274       .  A
O1136     Co1153   2.016       .  S
O1137      C1143   1.259       .  A
O1137     Co1152   2.008       .  S
O1138      C1141   1.243       .  A
O1138     Co1155   1.919       .  S
O1139      C1140   1.253       .  A
O1139     Co1154   1.882       .  S
C1140      C1540   1.471       .  S
C1141      C1441   1.471       .  S
C1142      C1504   1.483       .  S
C1143      C1744   1.476       .  S
O1144      C1157   1.268       .  A
O1144     Co1152   1.977       .  S
O1145      C1158   1.254       .  A
O1145     Co1153   1.976       .  S
O1146      C1159   1.295       .  A
O1146     Co1154   2.077       .  S
O1147      C1160   1.281       .  A
O1147     Co1155   2.045       .  S
O1148      C1160   1.257       .  A
O1148     Co1153   1.949       .  S
O1149      C1159   1.267       .  A
O1149     Co1152   1.896       .  S
O1150      C1157   1.276       .  A
O1150     Co1155   2.014       .  S
O1151      C1158   1.254       .  A
O1151     Co1154   1.971       .  S
Co1152     O1156   2.044       .  S
Co1153     O1156   2.076       .  S
Co1154     O1156   1.988       .  S
Co1155     O1156   2.002       .  S
C1157      C1429   1.472       .  S
C1158      C3448   1.472       .  S
C1159      C3604   1.467       .  S
C1160      C1480   1.473       .  S
O1161      C1169   1.263       .  A
O1161     Co1181   2.004       .  S
O1162      C1170   1.305       .  A
O1162     Co1182   2.099       .  S
O1163      C1171   1.273       .  A
O1163     Co1183   1.904       .  S
O1164      C1172   1.256       .  A
O1164     Co1184   1.997       .  S
O1165      C1171   1.292       .  A
O1165     Co1182   2.044       .  S
O1166      C1172   1.264       .  A
O1166     Co1181   2.020       .  S
O1167      C1170   1.260       .  A
O1167     Co1184   1.873       .  S
O1168      C1169   1.256       .  A
O1168     Co1183   1.992       .  S
C1169      C2080   1.476       .  S
C1170      C1444   1.467       .  S
C1171      C1753   1.476       .  S
C1172      C1492   1.490       .  S
O1173      C1186   1.266       .  A
O1173     Co1181   1.984       .  S
O1174      C1187   1.257       .  A
O1174     Co1182   2.004       .  S
O1175      C1188   1.271       .  A
O1175     Co1183   2.010       .  S
O1176      C1189   1.248       .  A
O1176     Co1184   1.970       .  S
O1177      C1189   1.249       .  A
O1177     Co1182   1.967       .  S
O1178      C1188   1.269       .  A
O1178     Co1181   1.984       .  S
O1179      C1186   1.260       .  A
O1179     Co1184   1.969       .  S
O1180      C1187   1.249       .  A
O1180     Co1183   1.974       .  S
Co1181     O1185   2.116       .  S
Co1182     O1185   2.255       .  S
Co1183     O1185   1.940       .  S
Co1184     O1185   1.921       .  S
C1186      C3016   1.478       .  S
C1187      C1708   1.476       .  S
C1188      C3196   1.491       .  S
C1189      C1456   1.478       .  S
O1190      C1198   1.249       .  A
O1190     Co1210   1.932       .  S
O1191      C1199   1.263       .  A
O1191     Co1211   1.888       .  S
O1192      C1200   1.280       .  A
O1192     Co1212   2.039       .  S
O1193      C1201   1.260       .  A
O1193     Co1213   2.013       .  S
O1194      C1200   1.271       .  A
O1194     Co1211   1.966       .  S
O1195      C1201   1.249       .  A
O1195     Co1210   1.951       .  S
O1196      C1199   1.294       .  A
O1196     Co1213   2.110       .  S
O1197      C1198   1.267       .  A
O1197     Co1212   2.027       .  S
C1198      C1516   1.445       .  S
C1199      C1720   1.480       .  S
C1200      C1816   1.491       .  S
C1201      C1468   1.464       .  S
O1202      C1215   1.276       .  A
O1202     Co1210   2.018       .  S
O1203      C1216   1.258       .  A
O1203     Co1211   1.992       .  S
O1204      C1217   1.262       .  A
O1204     Co1212   1.962       .  S
O1205      C1218   1.263       .  A
O1205     Co1213   1.876       .  S
O1206      C1218   1.296       .  A
O1206     Co1211   2.106       .  S
O1207      C1217   1.273       .  A
O1207     Co1210   2.020       .  S
O1208      C1215   1.269       .  A
O1208     Co1213   1.965       .  S
O1209      C1216   1.254       .  A
O1209     Co1212   1.965       .  S
Co1210     O1214   2.008       .  S
Co1211     O1214   2.002       .  S
Co1212     O1214   2.035       .  S
Co1213     O1214   1.997       .  S
C1215      C1432   1.477       .  S
C1216      C1621   1.477       .  S
C1217      C2164   1.482       .  S
C1218      C1732   1.461       .  S
O1219      C1227   1.303       .  A
O1219     Co1239   2.085       .  S
O1220      C1228   1.269       .  A
O1220     Co1240   1.983       .  S
O1221      C1229   1.262       .  A
O1221     Co1241   2.055       .  S
O1222      C1230   1.270       .  A
O1222     Co1242   1.986       .  S
O1223      C1229   1.242       .  A
O1223     Co1240   1.952       .  S
O1224      C1230   1.285       .  A
O1224     Co1239   2.027       .  S
O1225      C1228   1.272       .  A
O1225     Co1242   2.000       .  S
O1226      C1227   1.266       .  A
O1226     Co1241   1.897       .  S
C1227      C1609   1.463       .  S
C1228      C2128   1.489   1_556  S
C1229      C1417   1.494   1_556  S
C1230      C2008   1.499       .  S
O1231      C1244   1.259       .  A
O1231     Co1239   2.015       .  S
O1232      C1245   1.263       .  A
O1232     Co1240   1.957       .  S
O1233      C1246   1.296       .  A
O1233     Co1241   2.104       .  S
O1234      C1247   1.261       .  A
O1234     Co1242   1.996       .  S
O1235      C1247   1.251       .  A
O1235     Co1240   1.949       .  S
O1236      C1246   1.263       .  A
O1236     Co1239   1.936       .  S
O1237      C1244   1.255       .  A
O1237     Co1242   1.979       .  S
O1238      C1245   1.279       .  A
O1238     Co1241   2.030       .  S
Co1239     O1243   2.068       .  S
Co1240     O1243   2.075       .  S
Co1241     O1243   2.055       .  S
Co1242     O1243   2.058       .  S
C1244      C3076   1.497       .  S
C1245      C3292   1.468       .  S
C1246      C3400   1.511       .  S
C1247      C3148   1.493       .  S
O1248      C1256   1.266       .  A
O1248     Co1268   1.885       .  S
O1249      C1257   1.257       .  A
O1249     Co1269   1.955       .  S
O1250      C1258   1.271       .  A
O1250     Co1270   2.051       .  S
O1251      C1259   1.275       .  A
O1251     Co1271   2.030       .  S
O1252      C1258   1.253       .  A
O1252     Co1269   1.953       .  S
O1253      C1259   1.260       .  A
O1253     Co1268   1.949       .  S
O1254      C1257   1.271       .  A
O1254     Co1271   2.036       .  S
O1255      C1256   1.279       .  A
O1255     Co1270   2.055       .  S
C1256      C1672   1.446       .  S
C1257      C1408   1.485   1_565  S
C1258      C2392   1.485       .  S
C1259      C2029   1.458       .  S
O1260      C1273   1.268       .  A
O1260     Co1268   2.016       .  S
O1261      C1274   1.277       .  A
O1261     Co1269   2.017       .  S
O1262      C1275   1.274       .  A
O1262     Co1270   1.908       .  S
O1263      C1276   1.262       .  A
O1263     Co1271   1.961       .  S
O1264      C1276   1.276       .  A
O1264     Co1269   1.973       .  S
O1265      C1275   1.297       .  A
O1265     Co1268   2.092       .  S
O1266      C1273   1.259       .  A
O1266     Co1271   1.969       .  S
O1267      C1274   1.268       .  A
O1267     Co1270   1.957       .  S
Co1268     O1272   1.966       .  S
Co1269     O1272   1.972       .  S
Co1270     O1272   2.021       .  S
Co1271     O1272   2.062       .  S
C1273      C3589   1.477       .  S
C1274      C2560   1.461       .  S
C1275      C3685   1.480       .  S
C1276      C2428   1.464       .  S
O1277      C1285   1.269       .  A
O1277     Co1297   1.999       .  S
O1278      C1286   1.245       .  A
O1278     Co1298   1.981       .  S
O1279      C1287   1.244       .  A
O1279     Co1299   1.940       .  S
O1280      C1288   1.267       .  A
O1280     Co1300   1.921       .  S
O1281      C1287   1.261       .  A
O1281     Co1298   1.999       .  S
O1282      C1288   1.292       .  A
O1282     Co1297   2.085       .  S
O1283      C1286   1.258       .  A
O1283     Co1300   2.048       .  S
O1284      C1285   1.269       .  A
O1284     Co1299   1.985       .  S
C1285      C2224   1.486   1_556  S
C1286      C1900   1.501   1_556  S
C1287      C1393   1.473   1_556  S
C1288      C1636   1.477   1_556  S
O1289      C1302   1.270       .  A
O1289     Co1297   1.882       .  S
O1290      C1303   1.262       .  A
O1290     Co1298   1.965       .  S
O1291      C1304   1.252       .  A
O1291     Co1299   1.979       .  S
O1292      C1305   1.278       .  A
O1292     Co1300   2.043       .  S
O1293      C1305   1.267       .  A
O1293     Co1298   1.976       .  S
O1294      C1304   1.265       .  A
O1294     Co1297   2.020       .  S
O1295      C1302   1.295       .  A
O1295     Co1300   2.082       .  S
O1296      C1303   1.270       .  A
O1296     Co1299   1.989       .  S
Co1297     O1301   2.046       .  S
Co1298     O1301   2.087       .  S
Co1299     O1301   2.106       .  S
Co1300     O1301   2.060       .  S
C1302      C3508   1.467       .  S
C1303      C2860   1.478       .  S
C1304      C3577   1.497       .  S
C1305      C2965   1.487       .  S
O1306      C1314   1.291       .  A
O1306     Co1326   2.108       .  S
O1307      C1315   1.266       .  A
O1307     Co1327   2.023       .  S
O1308      C1316   1.256       .  A
O1308     Co1328   1.951       .  S
O1309      C1317   1.246       .  A
O1309     Co1329   1.949       .  S
O1310      C1316   1.277       .  A
O1310     Co1327   2.019       .  S
O1311      C1317   1.253       .  A
O1311     Co1326   2.003       .  S
O1312      C1315   1.254       .  A
O1312     Co1329   1.958       .  S
O1313      C1314   1.264       .  A
O1313     Co1328   1.914       .  S
C1314      C1912   1.491       .  S
C1315      C2248   1.486       .  S
C1316      C1396   1.466       .  S
C1317      C2200   1.456       .  S
O1318      C1331   1.271       .  A
O1318     Co1326   1.975       .  S
O1319      C1332   1.263       .  A
O1319     Co1327   1.992       .  S
O1320      C1333   1.298       .  A
O1320     Co1328   2.082       .  S
O1321      C1334   1.275       .  A
O1321     Co1329   2.002       .  S
O1322      C1334   1.271       .  A
O1322     Co1327   1.973       .  S
O1323      C1333   1.266       .  A
O1323     Co1326   1.874       .  S
O1324      C1331   1.281       .  A
O1324     Co1329   2.040       .  S
O1325      C1332   1.268       .  A
O1325     Co1328   2.025       .  S
Co1326     O1330   2.037       .  S
Co1327     O1330   2.076       .  S
Co1328     O1330   2.007       .  S
Co1329     O1330   1.998       .  S
C1331      C2725   1.482       .  S
C1332      C2872   1.497       .  S
C1333      C2905   1.473       .  S
C1334      C2800   1.472       .  S
O1335      C1343   1.288       .  A
O1335     Co1355   2.100       .  S
O1336      C1344   1.267       .  A
O1336     Co1356   2.025       .  S
O1337      C1345   1.267       .  A
O1337     Co1357   1.966       .  S
O1338      C1346   1.247       .  A
O1338     Co1358   1.954       .  S
O1339      C1345   1.273       .  A
O1339     Co1356   2.010       .  S
O1340      C1346   1.266       .  A
O1340     Co1355   2.031       .  S
O1341      C1344   1.256       .  A
O1341     Co1358   1.963       .  S
O1342      C1343   1.259       .  A
O1342     Co1357   1.901       .  S
C1343      C1960   1.478       .  S
C1344      C1405   1.486       .  S
C1345      C2053   1.473       .  S
C1346      C2377   1.485   1_655  S
O1347      C1360   1.271       .  A
O1347     Co1355   1.976       .  S
O1348      C1361   1.265       .  A
O1348     Co1356   1.995       .  S
O1349      C1362   1.294       .  A
O1349     Co1357   2.075       .  S
O1350      C1363   1.276       .  A
O1350     Co1358   2.002       .  S
O1351      C1363   1.268       .  A
O1351     Co1356   1.968       .  S
O1352      C1362   1.273       .  A
O1352     Co1355   1.913       .  S
O1353      C1360   1.281       .  A
O1353     Co1358   2.038       .  S
O1354      C1361   1.259       .  A
O1354     Co1357   1.976       .  S
Co1355     O1359   2.053       .  S
Co1356     O1359   2.087       .  S
Co1357     O1359   1.978       .  S
Co1358     O1359   1.993       .  S
C1360      C2488   1.486       .  S
C1361      C3160   1.490       .  S
C1362      C3256   1.485       .  S
C1363      C2440   1.475       .  S
O1364      C1372   1.270       .  A
O1364     Co1384   1.916       .  S
O1365      C1373   1.274       .  A
O1365     Co1385   2.020       .  S
O1366      C1374   1.260       .  A
O1366     Co1386   1.942       .  S
O1367      C1375   1.268       .  A
O1367     Co1387   1.862       .  S
O1368      C1374   1.271       .  A
O1368     Co1385   2.016       .  S
O1369      C1375   1.303       .  A
O1369     Co1384   2.136       .  S
O1370      C1373   1.259       .  A
O1370     Co1387   1.955       .  S
O1371      C1372   1.291       .  A
O1371     Co1386   2.073       .  S
C1372      C1600   1.481   1_565  S
C1373      C2140   1.465   1_565  S
C1374      C2320   1.478       .  S
C1375      C1420   1.491   1_565  S
O1376      C1389   1.262       .  A
O1376     Co1384   1.967       .  S
O1377      C1390   1.255       .  A
O1377     Co1385   1.953       .  S
O1378      C1391   1.284       .  A
O1378     Co1386   1.897       .  S
O1379      C1392   1.270       .  A
O1379     Co1387   2.018       .  S
O1380      C1392   1.257       .  A
O1380     Co1385   1.964       .  S
O1381      C1391   1.296       .  A
O1381     Co1384   2.054       .  S
O1382      C1389   1.261       .  A
O1382     Co1387   1.988       .  S
O1383      C1390   1.263       .  A
O1383     Co1386   2.025       .  S
Co1384     O1388   2.026       .  S
Co1385     O1388   2.017       .  S
Co1386     O1388   2.021       .  S
Co1387     O1388   1.889       .  S
C1389      C3304   1.468       .  S
C1390      C2644   1.482       .  S
C1391      C3340   1.473       .  S
C1392      C2821   1.482       .  S
C1393      C1394   1.399       .  A
C1393      C1398   1.421       .  A
C1394      C1395   1.397       .  A
C1394      H1399   1.084       .  S
C1395      C1396   1.415   1_455  A
C1395      O1400   1.370       .  S
C1396      C1397   1.393       .  A
C1397      C1398   1.386   1_655  A
C1397      H1401   1.084       .  S
C1398      O1402   1.372   1_554  S
O1400      H1404   0.992       .  S
O1402      H1403   0.992   1_556  S
C1405      C1406   1.408       .  A
C1405      C1410   1.410   1_655  A
C1406      C1407   1.407   1_645  A
C1406      H1411   1.083       .  S
C1407      C1408   1.411   1_565  A
C1407      O1412   1.372   1_455  S
C1408      C1409   1.406       .  A
C1409      C1410   1.394       .  A
C1409      H1413   1.084       .  S
C1410      O1414   1.372       .  S
O1412      H1416   0.992       .  S
O1414      H1415   0.992       .  S
C1417      C1418   1.410       .  A
C1417      C1422   1.408       .  A
C1418      C1419   1.390       .  A
C1418      H1423   1.084   1_554  S
C1419      C1420   1.407       .  A
C1419      O1424   1.372   1_545  S
C1420      C1421   1.414       .  A
C1421      C1422   1.416       .  A
C1421      H1425   1.083       .  S
C1422      O1426   1.369       .  S
O1424      H1428   0.992       .  S
O1426      H1427   0.992       .  S
C1429      C1430   1.401       .  A
C1429      C1434   1.409       .  A
C1430      C1431   1.407       .  A
C1430      H1435   1.083       .  S
C1431      C1432   1.415       .  A
C1431      O1436   1.371       .  S
C1432      C1433   1.399       .  A
C1433      C1434   1.389       .  A
C1433      H1437   1.084       .  S
C1434      O1438   1.369       .  S
O1436      H1440   0.992       .  S
O1438      H1439   0.992       .  S
C1441      C1442   1.398       .  A
C1441      C1446   1.416       .  A
C1442      C1443   1.402       .  A
C1442      H1447   1.083       .  S
C1443      C1444   1.415       .  A
C1443      O1448   1.373       .  S
C1444      C1445   1.393       .  A
C1445      C1446   1.388       .  A
C1445      H1449   1.084       .  S
C1446      O1450   1.372       .  S
O1448      H1452   0.991       .  S
O1450      H1451   0.991       .  S
C1453      C1454   1.396       .  A
C1453      C1458   1.414       .  A
C1454      C1455   1.387       .  A
C1454      H1459   1.084       .  S
C1455      C1456   1.416       .  A
C1455      O1460   1.375       .  S
C1456      C1457   1.403       .  A
C1457      C1458   1.409       .  A
C1457      H1461   1.083       .  S
C1458      O1462   1.371       .  S
O1460      H1464   0.991       .  S
O1462      H1463   0.992       .  S
C1465      C1466   1.409       .  A
C1465      C1470   1.406       .  A
C1466      C1467   1.400       .  A
C1466      H1471   1.084       .  S
C1467      C1468   1.403       .  A
C1467      O1472   1.371       .  S
C1468      C1469   1.403       .  A
C1469      C1470   1.391       .  A
C1469      H1473   1.084       .  S
C1470      O1474   1.372       .  S
O1472      H1476   0.992       .  S
O1474      H1475   0.992       .  S
C1477      C1478   1.400       .  A
C1477      C1482   1.414       .  A
C1478      C1479   1.399       .  A
C1478      H1483   1.084       .  S
C1479      C1480   1.410       .  A
C1479      O1484   1.370       .  S
C1480      C1481   1.398       .  A
C1481      C1482   1.404       .  A
C1481      H1485   1.084       .  S
C1482      O1486   1.371       .  S
O1484      H1488   0.992       .  S
O1486      H1487   0.991       .  S
C1489      C1490   1.402       .  A
C1489      C1494   1.404       .  A
C1490      C1491   1.402       .  A
C1490      H1495   1.084       .  S
C1491      C1492   1.413       .  A
C1491      O1496   1.372       .  S
C1492      C1493   1.410       .  A
C1493      C1494   1.403       .  A
C1493      H1497   1.081       .  S
C1494      O1498   1.372       .  S
O1496      H1500   0.992       .  S
O1498      H1499   0.992       .  S
C1501      C1502   1.397       .  A
C1501      C1506   1.402       .  A
C1502      C1503   1.398       .  A
C1502      H1507   1.079       .  S
C1503      C1504   1.414       .  A
C1503      O1508   1.373       .  S
C1504      C1505   1.409       .  A
C1505      C1506   1.398       .  A
C1505      H1509   1.083       .  S
C1506      O1510   1.372       .  S
O1508      H1512   0.991       .  S
O1510      H1511   0.992       .  S
C1513      C1514   1.408       .  A
C1513      C1518   1.404       .  A
C1514      C1515   1.388       .  A
C1514      H1519   1.082       .  S
C1515      C1516   1.396       .  A
C1515      O1520   1.372       .  S
C1516      C1517   1.406       .  A
C1517      C1518   1.398       .  A
C1517      H1521   1.084       .  S
C1518      O1522   1.372       .  S
O1520      H1524   0.992       .  S
O1522      H1523   0.991       .  S
C1525      C1526   1.404       .  A
C1525      C1530   1.408       .  A
C1526      C1527   1.406       .  A
C1526      H1531   1.084       .  S
C1527      C1528   1.411       .  A
C1527      O1532   1.371       .  S
C1528      C1529   1.404       .  A
C1529      C1530   1.400       .  A
C1529      H1533   1.084       .  S
C1530      O1534   1.370       .  S
O1532      H1536   0.992       .  S
O1534      H1535   0.992       .  S
C1537      C1538   1.401       .  A
C1537      C1542   1.412       .  A
C1538      C1539   1.390       .  A
C1538      H1543   1.084       .  S
C1539      C1540   1.412       .  A
C1539      O1544   1.373       .  S
C1540      C1541   1.400       .  A
C1541      C1542   1.399       .  A
C1541      H1545   1.082       .  S
C1542      O1546   1.371       .  S
O1544      H1548   0.992       .  S
O1546      H1547   0.992       .  S
C1549      C1550   1.408       .  A
C1549      C1554   1.410       .  A
C1550      C1551   1.408       .  A
C1550      H1555   1.084       .  S
C1551      C1552   1.408       .  A
C1551      O1556   1.370       .  S
C1552      C1553   1.404       .  A
C1553      C1554   1.407       .  A
C1553      H1557   1.084       .  S
C1554      O1558   1.375       .  S
O1556      H1560   0.992       .  S
O1558      H1559   0.992       .  S
C1561      C1562   1.411       .  A
C1561      C1566   1.408       .  A
C1562      C1563   1.387       .  A
C1562      H1567   1.083       .  S
C1563      C1564   1.402       .  A
C1563      O1568   1.373       .  S
C1564      C1565   1.410       .  A
C1565      C1566   1.406       .  A
C1565      H1569   1.084       .  S
C1566      O1570   1.371       .  S
O1568      H1572   0.992       .  S
O1570      H1571   0.992       .  S
C1573      C1574   1.402       .  A
C1573      C1578   1.412       .  A
C1574      C1575   1.398       .  A
C1574      H1579   1.084       .  S
C1575      C1576   1.412       .  A
C1575      O1580   1.372       .  S
C1576      C1577   1.404       .  A
C1577      C1578   1.407       .  A
C1577      H1581   1.084       .  S
C1578      O1582   1.370       .  S
O1580      H1584   0.992       .  S
O1582      H1583   0.992       .  S
C1585      C1586   1.406       .  A
C1585      C1590   1.415       .  A
C1586      C1587   1.395       .  A
C1586      H1591   1.083       .  S
C1587      C1588   1.404       .  A
C1587      O1592   1.369       .  S
C1588      C1589   1.405       .  A
C1589      C1590   1.413       .  A
C1589      H1593   1.083       .  S
C1590      O1594   1.371       .  S
O1592      H1596   0.992       .  S
O1594      H1595   0.989       .  S
C1597      C1598   1.406       .  A
C1597      C1602   1.412       .  A
C1598      C1599   1.400       .  A
C1598      H1603   1.083       .  S
C1599      C1600   1.410       .  A
C1599      O1604   1.372   1_545  S
C1600      C1601   1.406       .  A
C1601      C1602   1.397       .  A
C1601      H1605   1.084       .  S
C1602      O1606   1.372       .  S
O1604      H1608   0.992       .  S
O1606      H1607   0.992       .  S
C1609      C1610   1.407       .  A
C1609      C1614   1.399   1_556  A
C1610      C1611   1.399   1_556  A
C1610      H1615   1.084       .  S
C1611      C1612   1.405       .  A
C1611      O1616   1.372       .  S
C1612      C1613   1.409       .  A
C1613      C1614   1.398       .  A
C1613      H1617   1.084       .  S
C1614      O1618   1.374       .  S
O1616      H1620   0.991   1_554  S
O1618      H1619   0.992       .  S
C1621      C1622   1.407       .  A
C1621      C1626   1.411       .  A
C1622      C1623   1.400       .  A
C1622      H1627   1.084       .  S
C1623      C1624   1.403       .  A
C1623      O1628   1.368       .  S
C1624      C1625   1.396       .  A
C1625      C1626   1.393       .  A
C1625      H1629   1.081       .  S
C1626      O1630   1.370       .  S
O1628      H1632   0.992       .  S
O1630      H1631   0.992       .  S
C1633      C1634   1.401       .  A
C1633      C1638   1.403       .  A
C1634      C1635   1.401       .  A
C1634      H1639   1.083       .  S
C1635      C1636   1.411       .  A
C1635      O1640   1.371   1_554  S
C1636      C1637   1.403       .  A
C1637      C1638   1.399       .  A
C1637      H1641   1.084       .  S
C1638      O1642   1.365       .  S
O1640      H1644   0.991       .  S
O1642      H1643   0.992       .  S
C1645      C1646   1.402       .  A
C1645      C1650   1.408       .  A
C1646      C1647   1.399       .  A
C1646      H1651   1.084       .  S
C1647      C1648   1.406       .  A
C1647      O1652   1.372       .  S
C1648      C1649   1.398       .  A
C1649      C1650   1.392       .  A
C1649      H1653   1.084       .  S
C1650      O1654   1.372       .  S
O1652      H1656   0.992       .  S
O1654      H1655   0.991       .  S
C1657      C1658   1.406       .  A
C1657      C1662   1.417       .  A
C1658      C1659   1.406       .  A
C1658      H1663   1.083       .  S
C1659      C1660   1.414       .  A
C1659      O1664   1.372       .  S
C1660      C1661   1.402       .  A
C1661      C1662   1.403       .  A
C1661      H1665   1.084       .  S
C1662      O1666   1.371       .  S
O1664      H1668   0.991       .  S
O1666      H1667   0.991       .  S
C1669      C1670   1.393       .  A
C1669      C1674   1.408       .  A
C1670      C1671   1.387   1_545  A
C1670      H1675   1.084       .  S
C1671      C1672   1.412       .  A
C1671      O1676   1.373       .  S
C1672      C1673   1.394   1_565  A
C1673      C1674   1.388       .  A
C1673      H1677   1.084       .  S
C1674      O1678   1.371       .  S
O1676      H1680   0.992       .  S
O1678      H1679   0.991       .  S
C1681      C1682   1.397       .  A
C1681      C1686   1.418       .  A
C1682      C1683   1.400       .  A
C1682      H1687   1.084       .  S
C1683      C1684   1.422       .  A
C1683      O1688   1.372       .  S
C1684      C1685   1.398       .  A
C1685      C1686   1.399       .  A
C1685      H1689   1.084       .  S
C1686      O1690   1.373       .  S
O1688      H1692   0.992       .  S
O1690      H1691   0.992       .  S
C1693      C1694   1.412       .  A
C1693      C1698   1.404       .  A
C1694      C1695   1.385       .  A
C1694      H1699   1.084       .  S
C1695      C1696   1.397       .  A
C1695      O1700   1.373       .  S
C1696      C1697   1.410       .  A
C1697      C1698   1.400       .  A
C1697      H1701   1.084       .  S
C1698      O1702   1.372       .  S
O1700      H1704   0.992       .  S
O1702      H1703   0.992       .  S
C1705      C1706   1.404       .  A
C1705      C1710   1.418       .  A
C1706      C1707   1.399       .  A
C1706      H1711   1.083       .  S
C1707      C1708   1.409       .  A
C1707      O1712   1.370       .  S
C1708      C1709   1.400       .  A
C1709      C1710   1.406       .  A
C1709      H1713   1.083       .  S
C1710      O1714   1.371       .  S
O1712      H1716   0.991       .  S
O1714      H1715   0.992       .  S
C1717      C1718   1.404       .  A
C1717      C1722   1.412       .  A
C1718      C1719   1.395       .  A
C1718      H1723   1.084       .  S
C1719      C1720   1.411       .  A
C1719      O1724   1.372       .  S
C1720      C1721   1.405       .  A
C1721      C1722   1.401       .  A
C1721      H1725   1.084       .  S
C1722      O1726   1.372       .  S
O1724      H1728   0.992       .  S
O1726      H1727   0.992       .  S
C1729      C1730   1.409       .  A
C1729      C1734   1.414       .  A
C1730      C1731   1.408       .  A
C1730      H1735   1.083       .  S
C1731      C1732   1.405       .  A
C1731      O1736   1.371       .  S
C1732      C1733   1.394       .  A
C1733      C1734   1.390       .  A
C1733      H1737   1.085       .  S
C1734      O1738   1.372       .  S
O1736      H1740   0.992       .  S
O1738      H1739   0.992       .  S
C1741      C1742   1.410       .  A
C1741      C1746   1.405       .  A
C1742      C1743   1.404       .  A
C1742      H1747   1.084       .  S
C1743      C1744   1.404       .  A
C1743      O1748   1.372       .  S
C1744      C1745   1.407       .  A
C1745      C1746   1.396       .  A
C1745      H1749   1.084       .  S
C1746      O1750   1.370       .  S
O1748      H1752   0.991       .  S
O1750      H1751   0.992       .  S
C1753      C1754   1.401       .  A
C1753      C1758   1.415       .  A
C1754      C1755   1.396       .  A
C1754      H1759   1.084       .  S
C1755      C1756   1.412       .  A
C1755      O1760   1.372       .  S
C1756      C1757   1.398       .  A
C1757      C1758   1.399       .  A
C1757      H1761   1.081       .  S
C1758      O1762   1.372       .  S
O1760      H1764   0.992       .  S
O1762      H1763   0.992       .  S
C1765      C1766   1.414       .  A
C1765      C1770   1.414       .  A
C1766      C1767   1.410       .  A
C1766      H1771   1.083       .  S
C1767      C1768   1.405       .  A
C1767      O1772   1.371       .  S
C1768      C1769   1.404       .  A
C1769      C1770   1.408       .  A
C1769      H1773   1.083       .  S
C1770      O1774   1.373       .  S
O1772      H1776   0.992       .  S
O1774      H1775   0.991       .  S
C1777      C1778   1.411       .  A
C1777      C1782   1.408       .  A
C1778      C1779   1.406       .  A
C1778      H1783   1.083       .  S
C1779      C1780   1.406       .  A
C1779      O1784   1.371       .  S
C1780      C1781   1.408       .  A
C1781      C1782   1.393       .  A
C1781      H1785   1.084       .  S
C1782      O1786   1.372       .  S
O1784      H1788   0.992       .  S
O1786      H1787   0.992       .  S
C1789      C1790   1.400       .  A
C1789      C1794   1.413       .  A
C1790      C1791   1.394       .  A
C1790      H1795   1.083       .  S
C1791      C1792   1.411       .  A
C1791      O1796   1.372       .  S
C1792      C1793   1.407       .  A
C1793      C1794   1.416       .  A
C1793      H1797   1.083       .  S
C1794      O1798   1.370       .  S
O1796      H1800   0.992       .  S
O1798      H1799   0.992       .  S
C1801      C1802   1.407       .  A
C1801      C1806   1.404       .  A
C1802      C1803   1.410       .  A
C1802      H1807   1.084       .  S
C1803      C1804   1.414       .  A
C1803      O1808   1.372       .  S
C1804      C1805   1.409       .  A
C1805      C1806   1.403       .  A
C1805      H1809   1.083       .  S
C1806      O1810   1.366       .  S
O1808      H1812   0.992       .  S
O1810      H1811   0.992       .  S
C1813      C1814   1.407       .  A
C1813      C1818   1.415       .  A
C1814      C1815   1.411       .  A
C1814      H1819   1.083       .  S
C1815      C1816   1.416       .  A
C1815      O1820   1.371       .  S
C1816      C1817   1.402       .  A
C1817      C1818   1.392       .  A
C1817      H1821   1.084       .  S
C1818      O1822   1.372       .  S
O1820      H1824   0.991       .  S
O1822      H1823   0.992       .  S
C1825      C1826   1.407       .  A
C1825      C1830   1.398       .  A
C1826      C1827   1.402       .  A
C1826      H1831   1.084       .  S
C1827      C1828   1.403       .  A
C1827      O1832   1.371       .  S
C1828      C1829   1.409       .  A
C1829      C1830   1.394       .  A
C1829      H1833   1.083       .  S
C1830      O1834   1.371       .  S
O1832      H1836   0.992       .  S
O1834      H1835   0.992       .  S
C1837      C1838   1.404       .  A
C1837      C1842   1.413       .  A
C1838      C1839   1.395       .  A
C1838      H1843   1.083       .  S
C1839      C1840   1.404       .  A
C1839      O1844   1.370       .  S
C1840      C1841   1.404       .  A
C1841      C1842   1.404       .  A
C1841      H1845   1.084       .  S
C1842      O1846   1.372       .  S
O1844      H1848   0.992       .  S
O1846      H1847   0.992       .  S
C1849      C1850   1.411       .  A
C1849      C1854   1.409       .  A
C1850      C1851   1.394       .  A
C1850      H1855   1.082       .  S
C1851      C1852   1.398       .  A
C1851      O1856   1.373       .  S
C1852      C1853   1.404       .  A
C1853      C1854   1.402       .  A
C1853      H1857   1.084       .  S
C1854      O1858   1.371       .  S
O1856      H1860   0.992       .  S
O1858      H1859   0.991       .  S
C1861      C1862   1.401       .  A
C1861      C1866   1.406       .  A
C1862      C1863   1.402       .  A
C1862      H1867   1.084       .  S
C1863      C1864   1.413       .  A
C1863      O1868   1.371       .  S
C1864      C1865   1.403       .  A
C1865      C1866   1.392       .  A
C1865      H1869   1.084       .  S
C1866      O1870   1.373       .  S
O1868      H1872   0.992       .  S
O1870      H1871   0.992       .  S
C1873      C1874   1.411       .  A
C1873      C1878   1.408       .  A
C1874      C1875   1.414       .  A
C1874      H1879   1.083       .  S
C1875      C1876   1.411       .  A
C1875      O1880   1.371       .  S
C1876      C1877   1.410       .  A
C1877      C1878   1.405       .  A
C1877      H1881   1.083       .  S
C1878      O1882   1.371       .  S
O1880      H1884   0.992       .  S
O1882      H1883   0.992       .  S
C1885      C1886   1.403       .  A
C1885      C1890   1.409       .  A
C1886      C1887   1.410       .  A
C1886      H1891   1.083       .  S
C1887      C1888   1.411       .  A
C1887      O1892   1.371       .  S
C1888      C1889   1.398       .  A
C1889      C1890   1.395       .  A
C1889      H1893   1.083       .  S
C1890      O1894   1.371       .  S
O1892      H1896   0.990       .  S
O1894      H1895   0.992       .  S
C1897      C1898   1.402       .  A
C1897      C1902   1.420       .  A
C1898      C1899   1.401       .  A
C1898      H1903   1.084       .  S
C1899      C1900   1.419       .  A
C1899      O1904   1.372   1_554  S
C1900      C1901   1.405       .  A
C1901      C1902   1.413       .  A
C1901      H1905   1.083       .  S
C1902      O1906   1.371       .  S
O1904      H1908   0.992       .  S
O1906      H1907   0.992       .  S
C1909      C1910   1.406       .  A
C1909      C1914   1.414       .  A
C1910      C1911   1.404       .  A
C1910      H1915   1.082       .  S
C1911      C1912   1.414   1_455  A
C1911      O1916   1.371       .  S
C1912      C1913   1.405       .  A
C1913      C1914   1.401   1_655  A
C1913      H1917   1.084       .  S
C1914      O1918   1.372       .  S
O1916      H1920   0.992       .  S
O1918      H1919   0.992       .  S
C1921      C1922   1.406       .  A
C1921      C1926   1.407       .  A
C1922      C1923   1.409       .  A
C1922      H1927   1.083       .  S
C1923      C1924   1.411       .  A
C1923      O1928   1.371       .  S
C1924      C1925   1.406       .  A
C1925      C1926   1.391       .  A
C1925      H1929   1.084       .  S
C1926      O1930   1.373       .  S
O1928      H1932   0.992       .  S
O1930      H1931   0.991       .  S
C1933      C1934   1.406       .  A
C1933      C1938   1.419       .  A
C1934      C1935   1.411       .  A
C1934      H1939   1.083       .  S
C1935      C1936   1.415       .  A
C1935      O1940   1.371       .  S
C1936      C1937   1.401       .  A
C1937      C1938   1.398       .  A
C1937      H1941   1.084       .  S
C1938      O1942   1.372       .  S
O1940      H1944   0.992       .  S
O1942      H1943   0.992       .  S
C1945      C1946   1.405       .  A
C1945      C1950   1.401       .  A
C1946      C1947   1.400       .  A
C1946      H1951   1.084       .  S
C1947      C1948   1.403       .  A
C1947      O1952   1.369       .  S
C1948      C1949   1.403       .  A
C1949      C1950   1.395       .  A
C1949      H1953   1.082       .  S
C1950      O1954   1.372       .  S
O1952      H1956   0.991       .  S
O1954      H1955   0.991       .  S
C1957      C1958   1.404       .  A
C1957      C1962   1.412       .  A
C1958      C1959   1.399       .  A
C1958      H1963   1.084       .  S
C1959      C1960   1.411   1_455  A
C1959      O1964   1.371       .  S
C1960      C1961   1.403   1_655  A
C1961      C1962   1.395       .  A
C1961      H1965   1.084   1_455  S
C1962      O1966   1.372       .  S
O1964      H1968   0.991       .  S
O1966      H1967   0.992       .  S
C1969      C1970   1.402       .  A
C1969      C1974   1.401       .  A
C1970      C1971   1.388       .  A
C1970      H1975   1.081       .  S
C1971      C1972   1.399       .  A
C1971      O1976   1.371       .  S
C1972      C1973   1.405       .  A
C1973      C1974   1.399       .  A
C1973      H1977   1.084       .  S
C1974      O1978   1.370       .  S
O1976      H1980   0.991       .  S
O1978      H1979   0.991       .  S
C1981      C1982   1.395       .  A
C1981      C1986   1.411       .  A
C1982      C1983   1.389       .  A
C1982      H1987   1.079       .  S
C1983      C1984   1.413       .  A
C1983      O1988   1.374       .  S
C1984      C1985   1.409       .  A
C1985      C1986   1.412       .  A
C1985      H1989   1.083       .  S
C1986      O1990   1.371       .  S
O1988      H1992   0.991       .  S
O1990      H1991   0.992       .  S
C1993      C1994   1.408       .  A
C1993      C1998   1.404       .  A
C1994      C1995   1.410       .  A
C1994      H1999   1.083       .  S
C1995      C1996   1.414       .  A
C1995      O2000   1.371       .  S
C1996      C1997   1.416       .  A
C1997      C1998   1.410       .  A
C1997      H2001   1.083       .  S
C1998      O2002   1.369       .  S
O2000      H2004   0.992       .  S
O2002      H2003   0.992       .  S
C2005      C2006   1.398       .  A
C2005      C2010   1.416       .  A
C2006      C2007   1.392   1_554  A
C2006      H2011   1.084       .  S
C2007      C2008   1.421       .  A
C2007      O2012   1.373       .  S
C2008      C2009   1.406   1_556  A
C2009      C2010   1.415       .  A
C2009      H2013   1.079       .  S
C2010      O2014   1.370       .  S
O2012      H2016   0.992       .  S
O2014      H2015   0.991       .  S
C2017      C2018   1.409       .  A
C2017      C2022   1.409       .  A
C2018      C2019   1.398       .  A
C2018      H2023   1.084       .  S
C2019      C2020   1.402       .  A
C2019      O2024   1.372       .  S
C2020      C2021   1.405       .  A
C2021      C2022   1.404       .  A
C2021      H2025   1.083       .  S
C2022      O2026   1.371       .  S
O2024      H2028   0.992       .  S
O2026      H2027   0.992       .  S
C2029      C2030   1.398   1_565  A
C2029      C2034   1.404   1_565  A
C2030      C2031   1.401       .  A
C2030      H2035   1.083       .  S
C2031      C2032   1.415       .  A
C2031      O2036   1.370       .  S
C2032      C2033   1.404       .  A
C2033      C2034   1.391       .  A
C2033      H2037   1.083       .  S
C2034      O2038   1.372   1_545  S
O2036      H2040   0.992       .  S
O2038      H2039   0.992       .  S
C2041      C2042   1.405       .  A
C2041      C2046   1.413       .  A
C2042      C2043   1.407       .  A
C2042      H2047   1.084       .  S
C2043      C2044   1.410       .  A
C2043      O2048   1.370       .  S
C2044      C2045   1.400       .  A
C2045      C2046   1.389       .  A
C2045      H2049   1.085       .  S
C2046      O2050   1.373       .  S
O2048      H2052   0.991       .  S
O2050      H2051   0.992       .  S
C2053      C2054   1.409       .  A
C2053      C2058   1.407   1_655  A
C2054      C2055   1.401   1_655  A
C2054      H2059   1.083       .  S
C2055      C2056   1.405       .  A
C2055      O2060   1.371       .  S
C2056      C2057   1.406       .  A
C2057      C2058   1.387       .  A
C2057      H2061   1.084       .  S
C2058      O2062   1.373       .  S
O2060      H2064   0.992   1_455  S
O2062      H2063   0.992       .  S
C2065      C2066   1.405       .  A
C2065      C2070   1.416       .  A
C2066      C2067   1.403       .  A
C2066      H2071   1.083       .  S
C2067      C2068   1.410       .  A
C2067      O2072   1.371       .  S
C2068      C2069   1.397       .  A
C2069      C2070   1.378       .  A
C2069      H2073   1.084       .  S
C2070      O2074   1.376       .  S
O2072      H2076   0.991       .  S
O2074      H2075   0.992       .  S
C2077      C2078   1.405       .  A
C2077      C2082   1.415       .  A
C2078      C2079   1.401       .  A
C2078      H2083   1.084       .  S
C2079      C2080   1.410       .  A
C2079      O2084   1.371       .  S
C2080      C2081   1.401       .  A
C2081      C2082   1.397       .  A
C2081      H2085   1.084       .  S
C2082      O2086   1.372       .  S
O2084      H2088   0.992       .  S
O2086      H2087   0.992       .  S
C2089      C2090   1.400       .  A
C2089      C2094   1.402       .  A
C2090      C2091   1.394       .  A
C2090      H2095   1.083       .  S
C2091      C2092   1.404       .  A
C2091      O2096   1.370       .  S
C2092      C2093   1.404       .  A
C2093      C2094   1.395       .  A
C2093      H2097   1.084       .  S
C2094      O2098   1.369       .  S
O2096      H2100   0.992       .  S
O2098      H2099   0.992       .  S
C2101      C2102   1.407       .  A
C2101      C2106   1.406       .  A
C2102      C2103   1.405       .  A
C2102      H2107   1.084       .  S
C2103      C2104   1.407       .  A
C2103      O2108   1.372       .  S
C2104      C2105   1.402       .  A
C2105      C2106   1.394       .  A
C2105      H2109   1.084       .  S
C2106      O2110   1.373       .  S
O2108      H2112   0.992       .  S
O2110      H2111   0.991       .  S
C2113      C2114   1.409       .  A
C2113      C2118   1.411       .  A
C2114      C2115   1.396       .  A
C2114      H2119   1.083       .  S
C2115      C2116   1.402       .  A
C2115      O2120   1.372       .  S
C2116      C2117   1.402       .  A
C2117      C2118   1.400       .  A
C2117      H2121   1.084       .  S
C2118      O2122   1.373       .  S
O2120      H2124   0.992       .  S
O2122      H2123   0.991       .  S
C2125      C2126   1.407       .  A
C2125      C2130   1.414       .  A
C2126      C2127   1.403       .  A
C2126      H2131   1.082       .  S
C2127      C2128   1.411       .  A
C2127      O2132   1.372       .  S
C2128      C2129   1.405       .  A
C2129      C2130   1.403       .  A
C2129      H2133   1.084   1_554  S
C2130      O2134   1.372       .  S
O2132      H2136   0.992       .  S
O2134      H2135   0.992       .  S
C2137      C2138   1.409       .  A
C2137      C2142   1.406       .  A
C2138      C2139   1.399       .  A
C2138      H2143   1.084       .  S
C2139      C2140   1.403       .  A
C2139      O2144   1.372       .  S
C2140      C2141   1.404       .  A
C2141      C2142   1.393       .  A
C2141      H2145   1.083       .  S
C2142      O2146   1.374       .  S
O2144      H2148   0.992   1_545  S
O2146      H2147   0.992       .  S
C2149      C2150   1.411       .  A
C2149      C2154   1.399       .  A
C2150      C2151   1.410       .  A
C2150      H2155   1.084       .  S
C2151      C2152   1.406       .  A
C2151      O2156   1.371       .  S
C2152      C2153   1.402       .  A
C2153      C2154   1.387       .  A
C2153      H2157   1.077       .  S
C2154      O2158   1.372       .  S
O2156      H2160   0.991       .  S
O2158      H2159   0.991       .  S
C2161      C2162   1.398       .  A
C2161      C2166   1.403       .  A
C2162      C2163   1.393       .  A
C2162      H2167   1.084       .  S
C2163      C2164   1.413       .  A
C2163      O2168   1.370       .  S
C2164      C2165   1.410       .  A
C2165      C2166   1.403       .  A
C2165      H2169   1.083       .  S
C2166      O2170   1.370       .  S
O2168      H2172   0.991       .  S
O2170      H2171   0.992       .  S
C2173      C2174   1.398       .  A
C2173      C2178   1.408       .  A
C2174      C2175   1.400       .  A
C2174      H2179   1.073       .  S
C2175      C2176   1.407       .  A
C2175      O2180   1.371       .  S
C2176      C2177   1.398       .  A
C2177      C2178   1.396       .  A
C2177      H2181   1.084       .  S
C2178      O2182   1.368       .  S
O2180      H2184   0.992       .  S
O2182      H2183   0.992       .  S
C2185      C2186   1.406       .  A
C2185      C2190   1.408       .  A
C2186      C2187   1.388       .  A
C2186      H2191   1.084       .  S
C2187      C2188   1.403       .  A
C2187      O2192   1.373       .  S
C2188      C2189   1.403       .  A
C2189      C2190   1.399       .  A
C2189      H2193   1.081       .  S
C2190      O2194   1.372       .  S
O2192      H2196   0.992       .  S
O2194      H2195   0.992       .  S
C2197      C2198   1.399       .  A
C2197      C2202   1.414       .  A
C2198      C2199   1.387   1_455  A
C2198      H2203   1.081       .  S
C2199      C2200   1.407       .  A
C2199      O2204   1.373       .  S
C2200      C2201   1.397   1_655  A
C2201      C2202   1.399       .  A
C2201      H2205   1.084   1_455  S
C2202      O2206   1.371       .  S
O2204      H2208   0.992       .  S
O2206      H2207   0.992       .  S
C2209      C2210   1.395       .  A
C2209      C2214   1.410       .  A
C2210      C2211   1.398       .  A
C2210      H2215   1.083       .  S
C2211      C2212   1.413       .  A
C2211      O2216   1.369       .  S
C2212      C2213   1.398       .  A
C2213      C2214   1.393       .  A
C2213      H2217   1.084       .  S
C2214      O2218   1.373       .  S
O2216      H2220   0.992       .  S
O2218      H2219   0.992       .  S
C2221      C2222   1.403       .  A
C2221      C2226   1.413       .  A
C2222      C2223   1.405       .  A
C2222      H2227   1.084       .  S
C2223      C2224   1.416       .  A
C2223      O2228   1.371       .  S
C2224      C2225   1.402       .  A
C2225      C2226   1.396       .  A
C2225      H2229   1.083       .  S
C2226      O2230   1.371       .  S
O2228      H2232   0.992       .  S
O2230      H2231   0.992       .  S
C2233      C2234   1.406       .  A
C2233      C2238   1.408       .  A
C2234      C2235   1.405       .  A
C2234      H2239   1.084       .  S
C2235      C2236   1.410       .  A
C2235      O2240   1.370       .  S
C2236      C2237   1.402       .  A
C2237      C2238   1.403       .  A
C2237      H2241   1.084       .  S
C2238      O2242   1.377       .  S
O2240      H2244   0.992       .  S
O2242      H2243   0.992       .  S
C2245      C2246   1.405       .  A
C2245      C2250   1.405       .  A
C2246      C2247   1.403   1_455  A
C2246      H2251   1.083       .  S
C2247      C2248   1.412       .  A
C2247      O2252   1.372       .  S
C2248      C2249   1.408   1_655  A
C2249      C2250   1.397       .  A
C2249      H2253   1.083       .  S
C2250      O2254   1.372       .  S
O2252      H2256   0.992       .  S
O2254      H2255   0.991       .  S
C2257      C2258   1.409       .  A
C2257      C2262   1.413       .  A
C2258      C2259   1.414       .  A
C2258      H2263   1.083       .  S
C2259      C2260   1.412       .  A
C2259      O2264   1.371       .  S
C2260      C2261   1.398       .  A
C2261      C2262   1.395       .  A
C2261      H2265   1.076       .  S
C2262      O2266   1.375       .  S
O2264      H2268   0.992       .  S
O2266      H2267   0.991       .  S
C2269      C2270   1.401       .  A
C2269      C2274   1.409       .  A
C2270      C2271   1.390       .  A
C2270      H2275   1.085       .  S
C2271      C2272   1.410       .  A
C2271      O2276   1.373       .  S
C2272      C2273   1.410       .  A
C2273      C2274   1.415       .  A
C2273      H2277   1.083       .  S
C2274      O2278   1.370       .  S
O2276      H2280   0.992       .  S
O2278      H2279   0.992       .  S
C2281      C2282   1.402       .  A
C2281      C2286   1.412       .  A
C2282      C2283   1.390       .  A
C2282      H2287   1.084       .  S
C2283      C2284   1.411       .  A
C2283      O2288   1.372       .  S
C2284      C2285   1.406       .  A
C2285      C2286   1.408       .  A
C2285      H2289   1.082       .  S
C2286      O2290   1.374       .  S
O2288      H2292   0.991       .  S
O2290      H2291   0.991       .  S
C2293      C2294   1.406       .  A
C2293      C2298   1.413       .  A
C2294      C2295   1.400       .  A
C2294      H2299   1.084       .  S
C2295      C2296   1.406       .  A
C2295      O2300   1.371       .  S
C2296      C2297   1.400       .  A
C2297      C2298   1.397       .  A
C2297      H2301   1.084       .  S
C2298      O2302   1.372       .  S
O2300      H2304   0.992       .  S
O2302      H2303   0.992       .  S
C2305      C2306   1.410       .  A
C2305      C2310   1.410       .  A
C2306      C2307   1.406       .  A
C2306      H2311   1.083       .  S
C2307      C2308   1.408       .  A
C2307      O2312   1.367       .  S
C2308      C2309   1.411       .  A
C2309      C2310   1.409       .  A
C2309      H2313   1.083       .  S
C2310      O2314   1.371       .  S
O2312      H2316   0.992       .  S
O2314      H2315   0.992       .  S
C2317      C2318   1.403       .  A
C2317      C2322   1.408       .  A
C2318      C2319   1.399   1_545  A
C2318      H2323   1.084       .  S
C2319      C2320   1.411       .  A
C2319      O2324   1.370       .  S
C2320      C2321   1.404   1_565  A
C2321      C2322   1.392       .  A
C2321      H2325   1.084       .  S
C2322      O2326   1.371       .  S
O2324      H2328   0.991       .  S
O2326      H2327   0.992       .  S
C2329      C2330   1.399       .  A
C2329      C2334   1.404       .  A
C2330      C2331   1.392       .  A
C2330      H2335   1.084       .  S
C2331      C2332   1.410       .  A
C2331      O2336   1.370       .  S
C2332      C2333   1.412       .  A
C2333      C2334   1.407       .  A
C2333      H2337   1.083       .  S
C2334      O2338   1.371       .  S
O2336      H2340   0.993       .  S
O2338      H2339   0.991       .  S
C2341      C2342   1.401       .  A
C2341      C2346   1.410       .  A
C2342      C2343   1.401       .  A
C2342      H2347   1.084       .  S
C2343      C2344   1.415       .  A
C2343      O2348   1.372       .  S
C2344      C2345   1.405       .  A
C2345      C2346   1.406       .  A
C2345      H2349   1.083       .  S
C2346      O2350   1.372       .  S
O2348      H2352   0.992       .  S
O2350      H2351   0.992       .  S
C2353      C2354   1.412       .  A
C2353      C2358   1.403       .  A
C2354      C2355   1.388       .  A
C2354      H2359   1.083       .  S
C2355      C2356   1.401       .  A
C2355      O2360   1.372       .  S
C2356      C2357   1.412       .  A
C2357      C2358   1.401       .  A
C2357      H2361   1.083       .  S
C2358      O2362   1.372       .  S
O2360      H2364   0.992       .  S
O2362      H2363   0.992       .  S
C2365      C2366   1.407       .  A
C2365      C2370   1.416       .  A
C2366      C2367   1.416       .  A
C2366      H2371   1.083       .  S
C2367      C2368   1.414       .  A
C2367      O2372   1.373       .  S
C2368      C2369   1.402       .  A
C2369      C2370   1.404       .  A
C2369      H2373   1.083       .  S
C2370      O2374   1.372       .  S
O2372      H2376   0.991       .  S
O2374      H2375   0.992       .  S
C2377      C2378   1.399       .  A
C2377      C2382   1.419       .  A
C2378      C2379   1.400       .  A
C2378      H2383   1.084   1_455  S
C2379      C2380   1.421       .  A
C2379      O2384   1.372       .  S
C2380      C2381   1.398       .  A
C2381      C2382   1.398       .  A
C2381      H2385   1.084       .  S
C2382      O2386   1.372       .  S
O2384      H2388   0.992       .  S
O2386      H2387   0.991       .  S
C2389      C2390   1.409       .  A
C2389      C2394   1.403       .  A
C2390      C2391   1.411       .  A
C2390      H2395   1.084       .  S
C2391      C2392   1.408   1_545  A
C2391      O2396   1.371   1_545  S
C2392      C2393   1.408   1_565  A
C2393      C2394   1.394       .  A
C2393      H2397   1.084       .  S
C2394      O2398   1.373       .  S
O2396      H2400   0.992       .  S
O2398      H2399   0.992       .  S
C2401      C2402   1.403       .  A
C2401      C2406   1.402       .  A
C2402      C2403   1.402       .  A
C2402      H2407   1.077       .  S
C2403      C2404   1.400       .  A
C2403      O2408   1.375       .  S
C2404      C2405   1.403       .  A
C2405      C2406   1.394       .  A
C2405      H2409   1.083       .  S
C2406      O2410   1.371       .  S
O2408      H2412   0.992       .  S
O2410      H2411   0.992       .  S
C2413      C2414   1.408       .  A
C2413      C2418   1.402       .  A
C2414      C2415   1.409       .  A
C2414      H2419   1.083       .  S
C2415      C2416   1.406       .  A
C2415      O2420   1.370       .  S
C2416      C2417   1.401       .  A
C2417      C2418   1.386       .  A
C2417      H2421   1.081       .  S
C2418      O2422   1.372       .  S
O2420      H2424   0.992       .  S
O2422      H2423   0.992       .  S
C2425      C2426   1.405       .  A
C2425      C2430   1.417       .  A
C2426      C2427   1.403   1_655  A
C2426      H2431   1.083       .  S
C2427      C2428   1.410       .  A
C2427      O2432   1.371       .  S
C2428      C2429   1.393       .  A
C2429      C2430   1.378   1_455  A
C2429      H2433   1.085       .  S
C2430      O2434   1.380       .  S
O2432      H2436   0.992       .  S
O2434      H2435   0.993       .  S
C2437      C2438   1.393       .  A
C2437      C2442   1.411       .  A
C2438      C2439   1.384   1_565  A
C2438      H2443   1.083       .  S
C2439      C2440   1.413       .  A
C2439      O2444   1.370       .  S
C2440      C2441   1.405       .  A
C2441      C2442   1.407   1_545  A
C2441      H2445   1.083       .  S
C2442      O2446   1.371       .  S
O2444      H2448   0.992       .  S
O2446      H2447   0.991       .  S
C2449      C2450   1.402       .  A
C2449      C2454   1.407       .  A
C2450      C2451   1.409       .  A
C2450      H2455   1.079       .  S
C2451      C2452   1.415       .  A
C2451      O2456   1.372       .  S
C2452      C2453   1.412       .  A
C2453      C2454   1.410       .  A
C2453      H2457   1.083       .  S
C2454      O2458   1.371       .  S
O2456      H2460   0.992       .  S
O2458      H2459   0.992       .  S
C2461      C2462   1.408       .  A
C2461      C2466   1.413       .  A
C2462      C2463   1.422       .  A
C2462      H2467   1.083       .  S
C2463      C2464   1.420       .  A
C2463      O2468   1.370       .  S
C2464      C2465   1.404       .  A
C2465      C2466   1.392       .  A
C2465      H2469   1.084       .  S
C2466      O2470   1.373       .  S
O2468      H2472   0.992       .  S
O2470      H2471   0.992       .  S
C2473      C2474   1.413       .  A
C2473      C2478   1.408       .  A
C2474      C2475   1.425   1_655  A
C2474      H2479   1.083       .  S
C2475      C2476   1.418       .  A
C2475      O2480   1.370       .  S
C2476      C2477   1.409       .  A
C2477      C2478   1.396   1_455  A
C2477      H2481   1.083       .  S
C2478      O2482   1.372       .  S
O2480      H2484   0.992       .  S
O2482      H2483   0.992       .  S
C2485      C2486   1.409       .  A
C2485      C2490   1.407       .  A
C2486      C2487   1.405       .  A
C2486      H2491   1.084       .  S
C2487      C2488   1.405       .  A
C2487      O2492   1.371       .  S
C2488      C2489   1.409       .  A
C2489      C2490   1.409       .  A
C2489      H2493   1.084       .  S
C2490      O2494   1.371       .  S
O2492      H2496   0.992       .  S
O2494      H2495   0.991       .  S
C2497      C2498   1.403       .  A
C2497      C2502   1.417   1_545  A
C2498      C2499   1.396   1_545  A
C2498      H2503   1.084       .  S
C2499      C2500   1.414       .  A
C2499      O2504   1.373   1_565  S
C2500      C2501   1.401       .  A
C2501      C2502   1.407       .  A
C2501      H2505   1.083       .  S
C2502      O2506   1.371       .  S
O2504      H2508   0.991       .  S
O2506      H2507   0.992       .  S
C2509      C2510   1.409       .  A
C2509      C2514   1.421       .  A
C2510      C2511   1.413       .  A
C2510      H2515   1.083       .  S
C2511      C2512   1.420       .  A
C2511      O2516   1.371       .  S
C2512      C2513   1.407       .  A
C2513      C2514   1.415       .  A
C2513      H2517   1.083       .  S
C2514      O2518   1.372       .  S
O2516      H2520   0.991       .  S
O2518      H2519   0.992       .  S
C2521      C2522   1.392       .  A
C2521      C2526   1.412       .  A
C2522      C2523   1.372       .  A
C2522      H2527   1.085       .  S
C2523      C2524   1.407       .  A
C2523      O2528   1.367       .  S
C2524      C2525   1.406       .  A
C2525      C2526   1.409       .  A
C2525      H2529   1.083       .  S
C2526      O2530   1.371       .  S
O2528      H2532   0.993       .  S
O2530      H2531   0.991       .  S
C2533      C2534   1.408       .  A
C2533      C2538   1.413       .  A
C2534      C2535   1.403   1_565  A
C2534      H2539   1.083       .  S
C2535      C2536   1.412       .  A
C2535      O2540   1.373       .  S
C2536      C2537   1.408       .  A
C2537      C2538   1.407   1_545  A
C2537      H2541   1.083       .  S
C2538      O2542   1.371       .  S
O2540      H2544   0.992       .  S
O2542      H2543   0.992       .  S
C2545      C2546   1.406       .  A
C2545      C2550   1.407       .  A
C2546      C2547   1.404   1_465  A
C2546      H2551   1.084       .  S
C2547      C2548   1.405       .  A
C2547      O2552   1.373       .  S
C2548      C2549   1.398   1_545  A
C2549      C2550   1.395   1_655  A
C2549      H2553   1.075       .  S
C2550      O2554   1.373       .  S
O2552      H2556   0.992       .  S
O2554      H2555   0.991   1_455  S
C2557      C2558   1.402       .  A
C2557      C2562   1.401       .  A
C2558      C2559   1.398       .  A
C2558      H2563   1.080       .  S
C2559      C2560   1.402       .  A
C2559      O2564   1.371       .  S
C2560      C2561   1.407       .  A
C2561      C2562   1.399       .  A
C2561      H2565   1.084       .  S
C2562      O2566   1.372       .  S
O2564      H2568   0.992       .  S
O2566      H2567   0.991       .  S
C2569      C2570   1.405   1_655  A
C2569      C2574   1.410       .  A
C2570      C2571   1.409   1_455  A
C2570      H2575   1.081       .  S
C2571      C2572   1.409       .  A
C2571      O2576   1.372       .  S
C2572      C2573   1.393       .  A
C2573      C2574   1.390       .  A
C2573      H2577   1.085       .  S
C2574      O2578   1.372       .  S
O2576      H2580   0.991       .  S
O2578      H2579   0.991       .  S
C2581      C2582   1.408       .  A
C2581      C2586   1.397       .  A
C2582      C2583   1.393       .  A
C2582      H2587   1.084       .  S
C2583      C2584   1.400       .  A
C2583      O2588   1.372       .  S
C2584      C2585   1.412       .  A
C2585      C2586   1.384       .  A
C2585      H2589   1.084       .  S
C2586      O2590   1.373       .  S
O2588      H2592   0.992       .  S
O2590      H2591   0.992       .  S
C2593      C2594   1.398       .  A
C2593      C2598   1.414       .  A
C2594      C2595   1.405       .  A
C2594      H2599   1.084       .  S
C2595      C2596   1.423       .  A
C2595      O2600   1.371       .  S
C2596      C2597   1.405       .  A
C2597      C2598   1.412       .  A
C2597      H2601   1.083       .  S
C2598      O2602   1.371       .  S
O2600      H2604   0.992       .  S
O2602      H2603   0.991       .  S
C2605      C2606   1.401       .  A
C2605      C2610   1.413       .  A
C2606      C2607   1.412       .  A
C2606      H2611   1.084       .  S
C2607      C2608   1.415       .  A
C2607      O2612   1.373       .  S
C2608      C2609   1.400       .  A
C2609      C2610   1.403       .  A
C2609      H2613   1.084       .  S
C2610      O2614   1.367       .  S
O2612      H2616   0.992       .  S
O2614      H2615   0.992       .  S
C2617      C2618   1.412       .  A
C2617      C2622   1.411       .  A
C2618      C2619   1.406   1_565  A
C2618      H2623   1.084       .  S
C2619      C2620   1.409       .  A
C2619      O2624   1.372       .  S
C2620      C2621   1.412       .  A
C2621      C2622   1.412   1_545  A
C2621      H2625   1.083       .  S
C2622      O2626   1.371       .  S
O2624      H2628   0.992       .  S
O2626      H2627   0.992       .  S
C2629      C2630   1.401       .  A
C2629      C2634   1.416       .  A
C2630      C2631   1.395       .  A
C2630      H2635   1.084       .  S
C2631      C2632   1.417       .  A
C2631      O2636   1.373   1_565  S
C2632      C2633   1.405       .  A
C2633      C2634   1.407       .  A
C2633      H2637   1.083       .  S
C2634      O2638   1.371       .  S
O2636      H2640   0.992       .  S
O2638      H2639   0.992       .  S
C2641      C2642   1.407       .  A
C2641      C2646   1.402       .  A
C2642      C2643   1.412       .  A
C2642      H2647   1.083       .  S
C2643      C2644   1.415       .  A
C2643      O2648   1.371       .  S
C2644      C2645   1.398       .  A
C2645      C2646   1.387       .  A
C2645      H2649   1.084       .  S
C2646      O2650   1.356       .  S
O2648      H2652   0.991       .  S
O2650      H2651   0.992       .  S
C2653      C2654   1.407       .  A
C2653      C2658   1.413       .  A
C2654      C2655   1.403       .  A
C2654      H2659   1.083       .  S
C2655      C2656   1.413       .  A
C2655      O2660   1.371       .  S
C2656      C2657   1.406       .  A
C2657      C2658   1.404       .  A
C2657      H2661   1.083       .  S
C2658      O2662   1.372       .  S
O2660      H2664   0.992       .  S
O2662      H2663   0.992       .  S
C2665      C2666   1.402       .  A
C2665      C2670   1.409       .  A
C2666      C2667   1.389       .  A
C2666      H2671   1.083       .  S
C2667      C2668   1.403       .  A
C2667      O2672   1.371       .  S
C2668      C2669   1.404       .  A
C2669      C2670   1.400       .  A
C2669      H2673   1.084       .  S
C2670      O2674   1.372       .  S
O2672      H2676   0.992       .  S
O2674      H2675   0.992       .  S
C2677      C2678   1.407       .  A
C2677      C2682   1.411       .  A
C2678      C2679   1.405       .  A
C2678      H2683   1.084       .  S
C2679      C2680   1.405       .  A
C2679      O2684   1.374       .  S
C2680      C2681   1.403       .  A
C2681      C2682   1.401       .  A
C2681      H2685   1.084       .  S
C2682      O2686   1.373       .  S
O2684      H2688   0.990       .  S
O2686      H2687   0.992       .  S
C2689      C2690   1.396       .  A
C2689      C2694   1.410       .  A
C2690      C2691   1.388       .  A
C2690      H2695   1.076       .  S
C2691      C2692   1.409       .  A
C2691      O2696   1.372       .  S
C2692      C2693   1.409       .  A
C2693      C2694   1.412       .  A
C2693      H2697   1.083       .  S
C2694      O2698   1.371       .  S
O2696      H2700   0.992       .  S
O2698      H2699   0.991       .  S
C2701      C2702   1.389       .  A
C2701      C2706   1.407       .  A
C2702      C2703   1.395   1_655  A
C2702      H2707   1.081       .  S
C2703      C2704   1.419       .  A
C2703      O2708   1.375       .  S
C2704      C2705   1.404       .  A
C2705      C2706   1.399   1_455  A
C2705      H2709   1.083       .  S
C2706      O2710   1.372       .  S
O2708      H2712   0.992       .  S
O2710      H2711   0.992       .  S
C2713      C2714   1.400       .  A
C2713      C2718   1.412       .  A
C2714      C2715   1.397       .  A
C2714      H2719   1.081       .  S
C2715      C2716   1.411       .  A
C2715      O2720   1.373       .  S
C2716      C2717   1.409   1_655  A
C2717      C2718   1.415   1_455  A
C2717      H2721   1.083       .  S
C2718      O2722   1.368       .  S
O2720      H2724   0.992       .  S
O2722      H2723   0.992       .  S
C2725      C2726   1.395       .  A
C2725      C2730   1.414       .  A
C2726      C2727   1.405       .  A
C2726      H2731   1.083       .  S
C2727      C2728   1.422       .  A
C2727      O2732   1.372       .  S
C2728      C2729   1.403       .  A
C2729      C2730   1.406       .  A
C2729      H2733   1.083       .  S
C2730      O2734   1.370       .  S
O2732      H2736   0.992       .  S
O2734      H2735   0.992       .  S
C2737      C2738   1.397       .  A
C2737      C2742   1.412       .  A
C2738      C2739   1.395   1_565  A
C2738      H2743   1.074       .  S
C2739      C2740   1.406       .  A
C2739      O2744   1.370       .  S
C2740      C2741   1.399       .  A
C2741      C2742   1.407   1_545  A
C2741      H2745   1.084       .  S
C2742      O2746   1.374       .  S
O2744      H2748   0.991       .  S
O2746      H2747   0.992       .  S
C2749      C2750   1.412       .  A
C2749      C2754   1.413       .  A
C2750      C2751   1.407   1_655  A
C2750      H2755   1.083       .  S
C2751      C2752   1.404       .  A
C2751      O2756   1.371       .  S
C2752      C2753   1.401       .  A
C2753      C2754   1.399   1_455  A
C2753      H2757   1.083       .  S
C2754      O2758   1.373       .  S
O2756      H2760   0.992       .  S
O2758      H2759   0.992       .  S
C2761      C2762   1.398       .  A
C2761      C2766   1.405       .  A
C2762      C2763   1.405   1_565  A
C2762      H2767   1.083       .  S
C2763      C2764   1.414       .  A
C2763      O2768   1.367       .  S
C2764      C2765   1.408       .  A
C2765      C2766   1.397   1_545  A
C2765      H2769   1.083       .  S
C2766      O2770   1.372       .  S
O2768      H2772   0.992   1_545  S
O2770      H2771   0.992   1_565  S
C2773      C2774   1.391       .  A
C2773      C2778   1.407       .  A
C2774      C2775   1.380       .  A
C2774      H2779   1.085       .  S
C2775      C2776   1.417       .  A
C2775      O2780   1.373   1_655  S
C2776      C2777   1.403       .  A
C2777      C2778   1.397       .  A
C2777      H2781   1.084       .  S
C2778      O2782   1.372       .  S
O2780      H2784   0.992       .  S
O2782      H2783   0.991       .  S
C2785      C2786   1.404       .  A
C2785      C2790   1.417       .  A
C2786      C2787   1.404       .  A
C2786      H2791   1.083       .  S
C2787      C2788   1.413       .  A
C2787      O2792   1.372       .  S
C2788      C2789   1.401       .  A
C2789      C2790   1.402       .  A
C2789      H2793   1.082       .  S
C2790      O2794   1.371       .  S
O2792      H2796   0.991       .  S
O2794      H2795   0.991       .  S
C2797      C2798   1.405       .  A
C2797      C2802   1.408       .  A
C2798      C2799   1.395       .  A
C2798      H2803   1.084       .  S
C2799      C2800   1.405       .  A
C2799      O2804   1.372       .  S
C2800      C2801   1.407       .  A
C2801      C2802   1.406       .  A
C2801      H2805   1.084       .  S
C2802      O2806   1.371       .  S
O2804      H2808   0.992       .  S
O2806      H2807   0.992       .  S
C2809      C2810   1.401       .  A
C2809      C2814   1.406       .  A
C2810      C2811   1.403       .  A
C2810      H2815   1.084       .  S
C2811      C2812   1.413       .  A
C2811      O2816   1.371       .  S
C2812      C2813   1.403       .  A
C2813      C2814   1.385       .  A
C2813      H2817   1.083       .  S
C2814      O2818   1.374       .  S
O2816      H2820   0.992       .  S
O2818      H2819   0.992       .  S
C2821      C2822   1.406       .  A
C2821      C2826   1.416       .  A
C2822      C2823   1.401       .  A
C2822      H2827   1.083       .  S
C2823      C2824   1.402       .  A
C2823      O2828   1.366       .  S
C2824      C2825   1.397       .  A
C2825      C2826   1.395       .  A
C2825      H2829   1.084       .  S
C2826      O2830   1.373       .  S
O2828      H2832   0.992       .  S
O2830      H2831   0.993       .  S
C2833      C2834   1.416       .  A
C2833      C2838   1.407       .  A
C2834      C2835   1.401       .  A
C2834      H2839   1.084       .  S
C2835      C2836   1.398       .  A
C2835      O2840   1.371       .  S
C2836      C2837   1.408       .  A
C2837      C2838   1.407       .  A
C2837      H2841   1.083       .  S
C2838      O2842   1.371       .  S
O2840      H2844   0.992       .  S
O2842      H2843   0.991       .  S
C2845      C2846   1.398       .  A
C2845      C2850   1.409       .  A
C2846      C2847   1.408       .  A
C2846      H2851   1.084       .  S
C2847      C2848   1.415       .  A
C2847      O2852   1.375       .  S
C2848      C2849   1.397       .  A
C2849      C2850   1.400       .  A
C2849      H2853   1.084       .  S
C2850      O2854   1.364       .  S
O2852      H2856   0.992       .  S
O2854      H2855   0.992       .  S
C2857      C2858   1.398       .  A
C2857      C2862   1.407       .  A
C2858      C2859   1.401   1_655  A
C2858      H2863   1.082       .  S
C2859      C2860   1.413       .  A
C2859      O2864   1.374       .  S
C2860      C2861   1.407       .  A
C2861      C2862   1.405   1_455  A
C2861      H2865   1.084       .  S
C2862      O2866   1.370       .  S
O2864      H2868   0.992       .  S
O2866      H2867   0.992       .  S
C2869      C2870   1.412   1_556  A
C2869      C2874   1.412       .  A
C2870      C2871   1.417       .  A
C2870      H2875   1.083   1_554  S
C2871      C2872   1.410       .  A
C2871      O2876   1.370       .  S
C2872      C2873   1.405       .  A
C2873      C2874   1.405   1_554  A
C2873      H2877   1.083       .  S
C2874      O2878   1.369       .  S
O2876      H2880   0.992       .  S
O2878      H2879   0.991       .  S
C2881      C2882   1.404       .  A
C2881      C2886   1.414       .  A
C2882      C2883   1.404       .  A
C2882      H2887   1.083       .  S
C2883      C2884   1.409       .  A
C2883      O2888   1.371       .  S
C2884      C2885   1.398       .  A
C2885      C2886   1.395       .  A
C2885      H2889   1.084       .  S
C2886      O2890   1.372       .  S
O2888      H2892   0.992       .  S
O2890      H2891   0.992       .  S
C2893      C2894   1.409       .  A
C2893      C2898   1.410       .  A
C2894      C2895   1.421       .  A
C2894      H2899   1.083       .  S
C2895      C2896   1.417       .  A
C2895      O2900   1.371       .  S
C2896      C2897   1.406       .  A
C2897      C2898   1.403       .  A
C2897      H2901   1.083       .  S
C2898      O2902   1.373       .  S
O2900      H2904   0.992       .  S
O2902      H2903   0.991       .  S
C2905      C2906   1.410       .  A
C2905      C2910   1.409       .  A
C2906      C2907   1.395       .  A
C2906      H2911   1.083       .  S
C2907      C2908   1.399       .  A
C2907      O2912   1.371       .  S
C2908      C2909   1.400       .  A
C2909      C2910   1.394       .  A
C2909      H2913   1.081       .  S
C2910      O2914   1.372       .  S
O2912      H2916   0.992       .  S
O2914      H2915   0.992       .  S
C2917      C2918   1.399   1_554  A
C2917      C2922   1.409       .  A
C2918      C2919   1.395       .  A
C2918      H2923   1.082       .  S
C2919      C2920   1.414       .  A
C2919      O2924   1.371       .  S
C2920      C2921   1.407       .  A
C2921      C2922   1.405   1_556  A
C2921      H2925   1.083   1_556  S
C2922      O2926   1.372       .  S
O2924      H2928   0.992       .  S
O2926      H2927   0.991       .  S
C2929      C2930   1.405       .  A
C2929      C2934   1.417       .  A
C2930      C2931   1.408   1_655  A
C2930      H2935   1.083       .  S
C2931      C2932   1.419       .  A
C2931      O2936   1.371       .  S
C2932      C2933   1.406       .  A
C2933      C2934   1.407   1_455  A
C2933      H2937   1.083       .  S
C2934      O2938   1.371       .  S
O2936      H2940   0.992       .  S
O2938      H2939   0.992       .  S
C2941      C2942   1.411       .  A
C2941      C2946   1.410       .  A
C2942      C2943   1.403       .  A
C2942      H2947   1.083       .  S
C2943      C2944   1.405       .  A
C2943      O2948   1.371       .  S
C2944      C2945   1.407       .  A
C2945      C2946   1.398       .  A
C2945      H2949   1.084       .  S
C2946      O2950   1.370       .  S
O2948      H2952   0.992       .  S
O2950      H2951   0.991       .  S
C2953      C2954   1.400       .  A
C2953      C2958   1.412       .  A
C2954      C2955   1.401       .  A
C2954      H2959   1.083       .  S
C2955      C2956   1.408       .  A
C2955      O2960   1.367       .  S
C2956      C2957   1.400       .  A
C2957      C2958   1.403       .  A
C2957      H2961   1.084       .  S
C2958      O2962   1.371       .  S
O2960      H2964   0.992       .  S
O2962      H2963   0.991       .  S
C2965      C2966   1.395       .  A
C2965      C2970   1.412       .  A
C2966      C2967   1.393       .  A
C2966      H2971   1.083       .  S
C2967      C2968   1.418       .  A
C2967      O2972   1.375       .  S
C2968      C2969   1.413       .  A
C2969      C2970   1.422       .  A
C2969      H2973   1.083       .  S
C2970      O2974   1.370       .  S
O2972      H2976   0.993       .  S
O2974      H2975   0.992       .  S
C2977      C2978   1.401       .  A
C2977      C2982   1.406   1_455  A
C2978      C2979   1.402   1_455  A
C2978      H2983   1.084       .  S
C2979      C2980   1.405       .  A
C2979      O2984   1.372       .  S
C2980      C2981   1.394       .  A
C2981      C2982   1.382       .  A
C2981      H2985   1.085       .  S
C2982      O2986   1.372       .  S
O2984      H2988   0.992       .  S
O2986      H2987   0.992       .  S
C2989      C2990   1.399       .  A
C2989      C2994   1.403       .  A
C2990      C2991   1.395   1_556  A
C2990      H2995   1.084       .  S
C2991      C2992   1.413       .  A
C2991      O2996   1.373       .  S
C2992      C2993   1.408       .  A
C2993      C2994   1.398   1_554  A
C2993      H2997   1.083       .  S
C2994      O2998   1.371       .  S
O2996      H3000   0.993       .  S
O2998      H2999   0.991       .  S
C3001      C3002   1.404       .  A
C3001      C3006   1.418       .  A
C3002      C3003   1.400   1_655  A
C3002      H3007   1.083       .  S
C3003      C3004   1.414   1_554  A
C3003      O3008   1.372       .  S
C3004      C3005   1.400   1_455  A
C3005      C3006   1.402   1_556  A
C3005      H3009   1.082       .  S
C3006      O3010   1.371       .  S
O3008      H3012   0.992       .  S
O3010      H3011   0.992       .  S
C3013      C3014   1.391       .  A
C3013      C3018   1.405       .  A
C3014      C3015   1.389       .  A
C3014      H3019   1.085       .  S
C3015      C3016   1.421       .  A
C3015      O3020   1.372       .  S
C3016      C3017   1.405       .  A
C3017      C3018   1.401       .  A
C3017      H3021   1.083       .  S
C3018      O3022   1.371       .  S
O3020      H3024   0.992       .  S
O3022      H3023   0.992       .  S
C3025      C3026   1.406       .  A
C3025      C3030   1.401       .  A
C3026      C3027   1.397       .  A
C3026      H3031   1.084       .  S
C3027      C3028   1.402       .  A
C3027      O3032   1.372       .  S
C3028      C3029   1.409       .  A
C3029      C3030   1.401       .  A
C3029      H3033   1.084       .  S
C3030      O3034   1.374       .  S
O3032      H3036   0.992       .  S
O3034      H3035   0.992       .  S
C3037      C3038   1.408       .  A
C3037      C3042   1.419       .  A
C3038      C3039   1.414       .  A
C3038      H3043   1.083       .  S
C3039      C3040   1.415       .  A
C3039      O3044   1.371       .  S
C3040      C3041   1.402       .  A
C3041      C3042   1.409       .  A
C3041      H3045   1.082       .  S
C3042      O3046   1.371       .  S
O3044      H3048   0.991       .  S
O3046      H3047   0.992       .  S
C3049      C3050   1.396       .  A
C3049      C3054   1.402       .  A
C3050      C3051   1.396   1_556  A
C3050      H3055   1.084       .  S
C3051      C3052   1.414       .  A
C3051      O3056   1.373       .  S
C3052      C3053   1.406       .  A
C3053      C3054   1.398   1_554  A
C3053      H3057   1.083       .  S
C3054      O3058   1.371       .  S
O3056      H3060   0.992       .  S
O3058      H3059   0.992       .  S
C3061      C3062   1.401       .  A
C3061      C3066   1.409       .  A
C3062      C3063   1.389       .  A
C3062      H3067   1.085       .  S
C3063      C3064   1.409   1_556  A
C3063      O3068   1.372       .  S
C3064      C3065   1.404       .  A
C3065      C3066   1.401   1_554  A
C3065      H3069   1.082       .  S
C3066      O3070   1.371       .  S
O3068      H3072   0.992       .  S
O3070      H3071   0.992   1_556  S
C3073      C3074   1.407       .  A
C3073      C3078   1.413       .  A
C3074      C3075   1.400       .  A
C3074      H3079   1.084       .  S
C3075      C3076   1.414       .  A
C3075      O3080   1.372       .  S
C3076      C3077   1.409       .  A
C3077      C3078   1.410       .  A
C3077      H3081   1.083       .  S
C3078      O3082   1.371       .  S
O3080      H3084   0.992       .  S
O3082      H3083   0.992       .  S
C3085      C3086   1.406       .  A
C3085      C3090   1.410       .  A
C3086      C3087   1.413   1_655  A
C3086      H3091   1.083       .  S
C3087      C3088   1.414       .  A
C3087      O3092   1.372       .  S
C3088      C3089   1.401       .  A
C3089      C3090   1.401   1_455  A
C3089      H3093   1.084       .  S
C3090      O3094   1.367       .  S
O3092      H3096   0.992       .  S
O3094      H3095   0.992       .  S
C3097      C3098   1.404   1_556  A
C3097      C3102   1.406       .  A
C3098      C3099   1.401       .  A
C3098      H3103   1.084   1_554  S
C3099      C3100   1.413       .  A
C3099      O3104   1.371       .  S
C3100      C3101   1.410       .  A
C3101      C3102   1.404   1_554  A
C3101      H3105   1.083       .  S
C3102      O3106   1.371       .  S
O3104      H3108   0.992       .  S
O3106      H3107   0.991       .  S
C3109      C3110   1.397       .  A
C3109      C3114   1.407       .  A
C3110      C3111   1.385       .  A
C3110      H3115   1.084       .  S
C3111      C3112   1.404       .  A
C3111      O3116   1.373       .  S
C3112      C3113   1.404   1_556  A
C3113      C3114   1.405   1_554  A
C3113      H3117   1.083       .  S
C3114      O3118   1.371       .  S
O3116      H3120   0.992       .  S
O3118      H3119   0.992   1_556  S
C3121      C3122   1.403       .  A
C3121      C3126   1.406       .  A
C3122      C3123   1.405       .  A
C3122      H3127   1.083       .  S
C3123      C3124   1.410       .  A
C3123      O3128   1.374   1_655  S
C3124      C3125   1.404       .  A
C3125      C3126   1.396       .  A
C3125      H3129   1.083       .  S
C3126      O3130   1.372       .  S
O3128      H3132   0.992       .  S
O3130      H3131   0.992       .  S
C3133      C3134   1.400       .  A
C3133      C3138   1.408       .  A
C3134      C3135   1.407       .  A
C3134      H3139   1.084       .  S
C3135      C3136   1.417       .  A
C3135      O3140   1.367       .  S
C3136      C3137   1.405       .  A
C3137      C3138   1.397       .  A
C3137      H3141   1.083       .  S
C3138      O3142   1.371       .  S
O3140      H3144   0.990       .  S
O3142      H3143   0.992       .  S
C3145      C3146   1.407       .  A
C3145      C3150   1.401       .  A
C3146      C3147   1.407       .  A
C3146      H3151   1.083       .  S
C3147      C3148   1.408       .  A
C3147      O3152   1.371       .  S
C3148      C3149   1.413       .  A
C3149      C3150   1.400       .  A
C3149      H3153   1.083       .  S
C3150      O3154   1.372       .  S
O3152      H3156   0.991       .  S
O3154      H3155   0.992       .  S
C3157      C3158   1.410       .  A
C3157      C3162   1.402       .  A
C3158      C3159   1.415       .  A
C3158      H3163   1.083       .  S
C3159      C3160   1.409       .  A
C3159      O3164   1.371       .  S
C3160      C3161   1.409       .  A
C3161      C3162   1.393       .  A
C3161      H3165   1.084       .  S
C3162      O3166   1.372       .  S
O3164      H3168   0.992       .  S
O3166      H3167   0.992       .  S
C3169      C3170   1.397       .  A
C3169      C3174   1.405       .  A
C3170      C3171   1.399       .  A
C3170      H3175   1.080       .  S
C3171      C3172   1.413       .  A
C3171      O3176   1.372       .  S
C3172      C3173   1.400       .  A
C3173      C3174   1.391       .  A
C3173      H3177   1.084       .  S
C3174      O3178   1.371       .  S
O3176      H3180   0.992       .  S
O3178      H3179   0.992       .  S
C3181      C3182   1.403       .  A
C3181      C3186   1.407       .  A
C3182      C3183   1.406       .  A
C3182      H3187   1.084       .  S
C3183      C3184   1.412       .  A
C3183      O3188   1.370       .  S
C3184      C3185   1.404       .  A
C3185      C3186   1.389       .  A
C3185      H3189   1.084       .  S
C3186      O3190   1.373       .  S
O3188      H3192   0.992       .  S
O3190      H3191   0.992       .  S
C3193      C3194   1.398       .  A
C3193      C3198   1.408       .  A
C3194      C3195   1.404       .  A
C3194      H3199   1.079       .  S
C3195      C3196   1.417       .  A
C3195      O3200   1.372       .  S
C3196      C3197   1.406       .  A
C3197      C3198   1.401       .  A
C3197      H3201   1.083       .  S
C3198      O3202   1.371       .  S
O3200      H3204   0.992       .  S
O3202      H3203   0.992       .  S
C3205      C3206   1.394       .  A
C3205      C3210   1.408       .  A
C3206      C3207   1.400       .  A
C3206      H3211   1.083       .  S
C3207      C3208   1.417       .  A
C3207      O3212   1.370       .  S
C3208      C3209   1.404       .  A
C3209      C3210   1.400       .  A
C3209      H3213   1.084       .  S
C3210      O3214   1.372       .  S
O3212      H3216   0.991       .  S
O3214      H3215   0.992       .  S
C3217      C3218   1.393       .  A
C3217      C3222   1.407       .  A
C3218      C3219   1.394   1_655  A
C3218      H3223   1.081       .  S
C3219      C3220   1.419       .  A
C3219      O3224   1.372       .  S
C3220      C3221   1.404       .  A
C3221      C3222   1.399   1_455  A
C3221      H3225   1.083       .  S
C3222      O3226   1.372       .  S
O3224      H3228   0.992       .  S
O3226      H3227   0.992       .  S
C3229      C3230   1.407       .  A
C3229      C3234   1.413       .  A
C3230      C3231   1.413       .  A
C3230      H3235   1.083       .  S
C3231      C3232   1.411       .  A
C3231      O3236   1.373   1_655  S
C3232      C3233   1.403       .  A
C3233      C3234   1.400       .  A
C3233      H3237   1.084       .  S
C3234      O3238   1.372       .  S
O3236      H3240   0.992       .  S
O3238      H3239   0.992       .  S
C3241      C3242   1.403       .  A
C3241      C3246   1.408       .  A
C3242      C3243   1.397       .  A
C3242      H3247   1.079       .  S
C3243      C3244   1.409       .  A
C3243      O3248   1.372       .  S
C3244      C3245   1.405       .  A
C3245      C3246   1.394       .  A
C3245      H3249   1.084       .  S
C3246      O3250   1.372       .  S
O3248      H3252   0.992       .  S
O3250      H3251   0.992       .  S
C3253      C3254   1.403       .  A
C3253      C3258   1.407       .  A
C3254      C3255   1.399       .  A
C3254      H3259   1.084       .  S
C3255      C3256   1.413       .  A
C3255      O3260   1.372       .  S
C3256      C3257   1.407       .  A
C3257      C3258   1.405       .  A
C3257      H3261   1.083       .  S
C3258      O3262   1.371       .  S
O3260      H3264   0.992       .  S
O3262      H3263   0.989       .  S
C3265      C3266   1.401       .  A
C3265      C3270   1.416       .  A
C3266      C3267   1.393       .  A
C3266      H3271   1.084       .  S
C3267      C3268   1.417       .  A
C3267      O3272   1.373       .  S
C3268      C3269   1.408       .  A
C3269      C3270   1.414       .  A
C3269      H3273   1.083       .  S
C3270      O3274   1.371       .  S
O3272      H3276   0.992       .  S
O3274      H3275   0.992       .  S
C3277      C3278   1.402       .  A
C3277      C3282   1.416       .  A
C3278      C3279   1.400       .  A
C3278      H3283   1.084       .  S
C3279      C3280   1.412       .  A
C3279      O3284   1.369       .  S
C3280      C3281   1.401       .  A
C3281      C3282   1.408       .  A
C3281      H3285   1.083       .  S
C3282      O3286   1.371       .  S
O3284      H3288   0.992       .  S
O3286      H3287   0.992       .  S
C3289      C3290   1.407       .  A
C3289      C3294   1.400       .  A
C3290      C3291   1.400   1_565  A
C3290      H3295   1.081       .  S
C3291      C3292   1.401       .  A
C3291      O3296   1.371       .  S
C3292      C3293   1.408       .  A
C3293      C3294   1.398   1_545  A
C3293      H3297   1.084       .  S
C3294      O3298   1.371       .  S
O3296      H3300   0.992       .  S
O3298      H3299   0.991       .  S
C3301      C3302   1.396       .  A
C3301      C3306   1.410   1_556  A
C3302      C3303   1.382   1_556  A
C3302      H3307   1.074       .  S
C3303      C3304   1.403       .  A
C3303      O3308   1.374       .  S
C3304      C3305   1.409       .  A
C3305      C3306   1.415       .  A
C3305      H3309   1.083       .  S
C3306      O3310   1.370   1_554  S
O3308      H3312   0.992       .  S
O3310      H3311   0.992       .  S
C3313      C3314   1.396       .  A
C3313      C3318   1.414       .  A
C3314      C3315   1.400       .  A
C3314      H3319   1.084       .  S
C3315      C3316   1.417       .  A
C3315      O3320   1.369       .  S
C3316      C3317   1.400       .  A
C3317      C3318   1.400       .  A
C3317      H3321   1.084       .  S
C3318      O3322   1.372       .  S
O3320      H3324   0.991       .  S
O3322      H3323   0.992       .  S
C3325      C3326   1.410       .  A
C3325      C3330   1.414       .  A
C3326      C3327   1.398       .  A
C3326      H3331   1.083       .  S
C3327      C3328   1.401       .  A
C3327      O3332   1.372       .  S
C3328      C3329   1.401       .  A
C3329      C3330   1.402       .  A
C3329      H3333   1.084       .  S
C3330      O3334   1.371       .  S
O3332      H3336   0.992       .  S
O3334      H3335   0.992       .  S
C3337      C3338   1.396       .  A
C3337      C3342   1.403       .  A
C3338      C3339   1.397       .  A
C3338      H3343   1.084       .  S
C3339      C3340   1.416       .  A
C3339      O3344   1.373       .  S
C3340      C3341   1.402       .  A
C3341      C3342   1.393       .  A
C3341      H3345   1.083       .  S
C3342      O3346   1.368       .  S
O3344      H3348   0.992       .  S
O3346      H3347   0.992       .  S
C3349      C3350   1.410   1_556  A
C3349      C3354   1.405       .  A
C3350      C3351   1.411       .  A
C3350      H3355   1.083       .  S
C3351      C3352   1.413       .  A
C3351      O3356   1.370       .  S
C3352      C3353   1.405   1_554  A
C3353      C3354   1.389       .  A
C3353      H3357   1.079       .  S
C3354      O3358   1.372       .  S
O3356      H3360   0.991       .  S
O3358      H3359   0.992       .  S
C3361      C3362   1.408       .  A
C3361      C3366   1.409       .  A
C3362      C3363   1.403   1_565  A
C3362      H3367   1.084       .  S
C3363      C3364   1.413       .  A
C3363      O3368   1.371       .  S
C3364      C3365   1.410       .  A
C3365      C3366   1.407   1_545  A
C3365      H3369   1.083       .  S
C3366      O3370   1.368       .  S
O3368      H3372   0.992       .  S
O3370      H3371   0.991       .  S
C3373      C3374   1.412       .  A
C3373      C3378   1.408       .  A
C3374      C3375   1.415       .  A
C3374      H3379   1.083       .  S
C3375      C3376   1.412       .  A
C3375      O3380   1.370       .  S
C3376      C3377   1.410       .  A
C3377      C3378   1.397       .  A
C3377      H3381   1.084       .  S
C3378      O3382   1.370       .  S
O3380      H3384   0.991       .  S
O3382      H3383   0.992       .  S
C3385      C3386   1.409       .  A
C3385      C3390   1.420       .  A
C3386      C3387   1.418       .  A
C3386      H3391   1.083       .  S
C3387      C3388   1.416       .  A
C3387      O3392   1.370       .  S
C3388      C3389   1.403       .  A
C3389      C3390   1.408       .  A
C3389      H3393   1.084       .  S
C3390      O3394   1.372       .  S
O3392      H3396   0.991       .  S
O3394      H3395   0.992       .  S
C3397      C3398   1.416       .  A
C3397      C3402   1.412       .  A
C3398      C3399   1.411       .  A
C3398      H3403   1.083       .  S
C3399      C3400   1.411       .  A
C3399      O3404   1.371       .  S
C3400      C3401   1.414       .  A
C3401      C3402   1.413       .  A
C3401      H3405   1.083       .  S
C3402      O3406   1.371       .  S
O3404      H3408   0.992       .  S
O3406      H3407   0.991       .  S
C3409      C3410   1.405   1_545  A
C3409      C3414   1.414       .  A
C3410      C3411   1.397       .  A
C3410      H3415   1.082       .  S
C3411      C3412   1.407       .  A
C3411      O3416   1.373       .  S
C3412      C3413   1.404       .  A
C3413      C3414   1.403   1_565  A
C3413      H3417   1.084       .  S
C3414      O3418   1.371       .  S
O3416      H3420   0.992       .  S
O3418      H3419   0.992       .  S
C3421      C3422   1.404       .  A
C3421      C3426   1.407       .  A
C3422      C3423   1.409   1_556  A
C3422      H3427   1.084       .  S
C3423      C3424   1.418       .  A
C3423      O3428   1.371       .  S
C3424      C3425   1.411       .  A
C3425      C3426   1.409   1_554  A
C3425      H3429   1.083       .  S
C3426      O3430   1.370       .  S
O3428      H3432   0.992       .  S
O3430      H3431   0.992       .  S
C3433      C3434   1.398       .  A
C3433      C3438   1.404   1_545  A
C3434      C3435   1.393   1_545  A
C3434      H3439   1.078       .  S
C3435      C3436   1.400   1_556  A
C3435      O3440   1.370   1_556  S
C3436      C3437   1.400   1_554  A
C3437      C3438   1.393       .  A
C3437      H3441   1.084   1_556  S
C3438      O3442   1.372   1_565  S
O3440      H3444   0.992       .  S
O3442      H3443   0.992       .  S
C3445      C3446   1.409       .  A
C3445      C3450   1.404       .  A
C3446      C3447   1.410       .  A
C3446      H3451   1.083       .  S
C3447      C3448   1.407       .  A
C3447      O3452   1.370       .  S
C3448      C3449   1.402       .  A
C3449      C3450   1.381       .  A
C3449      H3453   1.080       .  S
C3450      O3454   1.375       .  S
O3452      H3456   0.992       .  S
O3454      H3455   0.992       .  S
C3457      C3458   1.400       .  A
C3457      C3462   1.403       .  A
C3458      C3459   1.404       .  A
C3458      H3463   1.083       .  S
C3459      C3460   1.412       .  A
C3459      O3464   1.369       .  S
C3460      C3461   1.401       .  A
C3461      C3462   1.387       .  A
C3461      H3465   1.083       .  S
C3462      O3466   1.371       .  S
O3464      H3468   0.992       .  S
O3466      H3467   0.992       .  S
C3469      C3470   1.407       .  A
C3469      C3474   1.417       .  A
C3470      C3471   1.407       .  A
C3470      H3475   1.083       .  S
C3471      C3472   1.416       .  A
C3471      O3476   1.372       .  S
C3472      C3473   1.407       .  A
C3473      C3474   1.408       .  A
C3473      H3477   1.083       .  S
C3474      O3478   1.371       .  S
O3476      H3480   0.992       .  S
O3478      H3479   0.992       .  S
C3481      C3482   1.408       .  A
C3481      C3486   1.412       .  A
C3482      C3483   1.393   1_554  A
C3482      H3487   1.084       .  S
C3483      C3484   1.400       .  A
C3483      O3488   1.372       .  S
C3484      C3485   1.401       .  A
C3485      C3486   1.401   1_556  A
C3485      H3489   1.084       .  S
C3486      O3490   1.371       .  S
O3488      H3492   0.991       .  S
O3490      H3491   0.992       .  S
C3493      C3494   1.400       .  A
C3493      C3498   1.411       .  A
C3494      C3495   1.397       .  A
C3494      H3499   1.084       .  S
C3495      C3496   1.406   1_556  A
C3495      O3500   1.366       .  S
C3496      C3497   1.405       .  A
C3497      C3498   1.408   1_554  A
C3497      H3501   1.084       .  S
C3498      O3502   1.372       .  S
O3500      H3504   0.992   1_556  S
O3502      H3503   0.991   1_556  S
C3505      C3506   1.408       .  A
C3505      C3510   1.406       .  A
C3506      C3507   1.413       .  A
C3506      H3511   1.083       .  S
C3507      C3508   1.409       .  A
C3507      O3512   1.370       .  S
C3508      C3509   1.394       .  A
C3509      C3510   1.381       .  A
C3509      H3513   1.085       .  S
C3510      O3514   1.367       .  S
O3512      H3516   0.992       .  S
O3514      H3515   0.992       .  S
C3517      C3518   1.408   1_565  A
C3517      C3522   1.408       .  A
C3518      C3519   1.399       .  A
C3518      H3523   1.084   1_545  S
C3519      C3520   1.408       .  A
C3519      O3524   1.371       .  S
C3520      C3521   1.410       .  A
C3521      C3522   1.406   1_545  A
C3521      H3525   1.083       .  S
C3522      O3526   1.372       .  S
O3524      H3528   0.992       .  S
O3526      H3527   0.992       .  S
C3529      C3530   1.403       .  A
C3529      C3534   1.407   1_556  A
C3530      C3531   1.408   1_556  A
C3530      H3535   1.084       .  S
C3531      C3532   1.416       .  A
C3531      O3536   1.371       .  S
C3532      C3533   1.408       .  A
C3533      C3534   1.405       .  A
C3533      H3537   1.083       .  S
C3534      O3538   1.372   1_554  S
O3536      H3540   0.992       .  S
O3538      H3539   0.992       .  S
C3541      C3542   1.405       .  A
C3541      C3546   1.404       .  A
C3542      C3543   1.409   1_556  A
C3542      H3547   1.083       .  S
C3543      C3544   1.407       .  A
C3543      O3548   1.372       .  S
C3544      C3545   1.401   1_554  A
C3545      C3546   1.389       .  A
C3545      H3549   1.085   1_556  S
C3546      O3550   1.372       .  S
O3548      H3552   0.991       .  S
O3550      H3551   0.992       .  S
C3553      C3554   1.407       .  A
C3553      C3558   1.422       .  A
C3554      C3555   1.417   1_565  A
C3554      H3559   1.083       .  S
C3555      C3556   1.419       .  A
C3555      O3560   1.367       .  S
C3556      C3557   1.400       .  A
C3557      C3558   1.397   1_545  A
C3557      H3561   1.083       .  S
C3558      O3562   1.372       .  S
O3560      H3564   0.992       .  S
O3562      H3563   0.992       .  S
C3565      C3566   1.410       .  A
C3565      C3570   1.407       .  A
C3566      C3567   1.404       .  A
C3566      H3571   1.083       .  S
C3567      C3568   1.408       .  A
C3567      O3572   1.371       .  S
C3568      C3569   1.406       .  A
C3569      C3570   1.394       .  A
C3569      H3573   1.081       .  S
C3570      O3574   1.371       .  S
O3572      H3576   0.992       .  S
O3574      H3575   0.992       .  S
C3577      C3578   1.408       .  A
C3577      C3582   1.412       .  A
C3578      C3579   1.402       .  A
C3578      H3583   1.082       .  S
C3579      C3580   1.405       .  A
C3579      O3584   1.372       .  S
C3580      C3581   1.412       .  A
C3581      C3582   1.421       .  A
C3581      H3585   1.083       .  S
C3582      O3586   1.371       .  S
O3584      H3588   0.991       .  S
O3586      H3587   0.992       .  S
C3589      C3590   1.407       .  A
C3589      C3594   1.402       .  A
C3590      C3591   1.405       .  A
C3590      H3595   1.084       .  S
C3591      C3592   1.406       .  A
C3591      O3596   1.371       .  S
C3592      C3593   1.409       .  A
C3593      C3594   1.402       .  A
C3593      H3597   1.079       .  S
C3594      O3598   1.372       .  S
O3596      H3600   0.991       .  S
O3598      H3599   0.991       .  S
C3601      C3602   1.397       .  A
C3601      C3606   1.407       .  A
C3602      C3603   1.398       .  A
C3602      H3607   1.084       .  S
C3603      C3604   1.413       .  A
C3603      O3608   1.372       .  S
C3604      C3605   1.400       .  A
C3605      C3606   1.395       .  A
C3605      H3609   1.084       .  S
C3606      O3610   1.371       .  S
O3608      H3612   0.991       .  S
O3610      H3611   0.992       .  S
C3613      C3614   1.405       .  A
C3613      C3618   1.410       .  A
C3614      C3615   1.405       .  A
C3614      H3619   1.083       .  S
C3615      C3616   1.411       .  A
C3615      O3620   1.371       .  S
C3616      C3617   1.400       .  A
C3617      C3618   1.384       .  A
C3617      H3621   1.083       .  S
C3618      O3622   1.372       .  S
O3620      H3624   0.992       .  S
O3622      H3623   0.992       .  S
C3625      C3626   1.402       .  A
C3625      C3630   1.408       .  A
C3626      C3627   1.391       .  A
C3626      H3631   1.084       .  S
C3627      C3628   1.411       .  A
C3627      O3632   1.374       .  S
C3628      C3629   1.412       .  A
C3629      C3630   1.411       .  A
C3629      H3633   1.084       .  S
C3630      O3634   1.371       .  S
O3632      H3636   0.992       .  S
O3634      H3635   0.992       .  S
C3637      C3638   1.404       .  A
C3637      C3642   1.409       .  A
C3638      C3639   1.382       .  A
C3638      H3643   1.084       .  S
C3639      C3640   1.397       .  A
C3639      O3644   1.371       .  S
C3640      C3641   1.397       .  A
C3641      C3642   1.400       .  A
C3641      H3645   1.079       .  S
C3642      O3646   1.376       .  S
O3644      H3648   0.992       .  S
O3646      H3647   0.992       .  S
C3649      C3650   1.390       .  A
C3649      C3654   1.411       .  A
C3650      C3651   1.393   1_565  A
C3650      H3655   1.084       .  S
C3651      C3652   1.423       .  A
C3651      O3656   1.372       .  S
C3652      C3653   1.400       .  A
C3653      C3654   1.405   1_545  A
C3653      H3657   1.084       .  S
C3654      O3658   1.376       .  S
O3656      H3660   0.992       .  S
O3658      H3659   0.992       .  S
C3661      C3662   1.404       .  A
C3661      C3666   1.404       .  A
C3662      C3663   1.406       .  A
C3662      H3667   1.083       .  S
C3663      C3664   1.409       .  A
C3663      O3668   1.371       .  S
C3664      C3665   1.401       .  A
C3665      C3666   1.393       .  A
C3665      H3669   1.084   1_565  S
C3666      O3670   1.371       .  S
O3668      H3672   0.991       .  S
O3670      H3671   0.992       .  S
C3673      C3674   1.403       .  A
C3673      C3678   1.411       .  A
C3674      C3675   1.391       .  A
C3674      H3679   1.084       .  S
C3675      C3676   1.406       .  A
C3675      O3680   1.372       .  S
C3676      C3677   1.395       .  A
C3677      C3678   1.396       .  A
C3677      H3681   1.082       .  S
C3678      O3682   1.367       .  S
O3680      H3684   0.992       .  S
O3682      H3683   0.992       .  S
C3685      C3686   1.411       .  A
C3685      C3690   1.408       .  A
C3686      C3687   1.415       .  A
C3686      H3691   1.083       .  S
C3687      C3688   1.409       .  A
C3687      O3692   1.370       .  S
C3688      C3689   1.389       .  A
C3689      C3690   1.380       .  A
C3689      H3693   1.075       .  S
C3690      O3694   1.369       .  S
O3692      H3696   0.992       .  S
O3694      H3695   0.993       .  S
