geometry optimzed in LAMMPS
_audit_creation_date              2020-11-30 
_audit_creation_method            'lammps2cif' 
_symmetry_space_group_name_H-M    'P1' 
_symmetry_Int_Tables_number       1 
_symmetry_cell_setting            triclinic 
loop_ 
_symmetry_equiv_pos_as_xyz 
  x,y,z 
_cell_length_a                    41.29365185735329 
_cell_length_b                    41.31385698202859 
_cell_length_c                    35.978191471740885 
_cell_angle_alpha                 90.48355788868464 
_cell_angle_beta                  89.81405665990441 
_cell_angle_gamma                 120.67283722161777 
loop_ 
_atom_site_label 
_atom_site_type_symbol 
_atom_site_fract_x 
_atom_site_fract_y 
_atom_site_fract_z 
_atom_site_charge 
C1          C  0.51029428  0.04207763  0.80114973     0.01040
C2          C  0.54142226  0.03836912  0.79806341     0.01040
C3          C  0.55985040  0.07947683  0.18328235     0.01040
C4          C  0.52794422  0.08244828  0.18335666     0.01040
O5          O  0.33345513  0.98669948  0.99985670    -0.57340
C6          C  0.42472345  0.03845497  0.93103593     0.75290
O7          O  0.38829206  0.11203331  0.98222456    -0.58500
C8          C  0.31758768  0.99602171  0.02436928     0.75260
C9          C  0.43514820  0.06356063  0.05342379     0.77650
Cd10       Cd  0.38602501  0.05107210  0.99063273     1.37470
O11         O  0.39211991  0.01285675  0.94064888    -0.57340
O12         O  0.41418724  0.03171762  0.03864808    -0.56150
C13         C  0.36563947  0.10055087  0.95488807     0.77610
O14         O  0.43444824  0.09101333  0.03870045    -0.58520
O15         O  0.43869059  0.06887056  0.94948447    -0.56970
O16         O  0.33169563  0.03077940  0.03106274    -0.56960
O17         O  0.35269522  0.06669209  0.94520066    -0.56140
O18         O  0.66111917  0.07892475  0.04249232    -0.57340
C19         C  0.73812909  0.09576307  0.95927266     0.75290
O20         O  0.65743506  0.97833538  0.00580550    -0.58500
C21         C  0.62854347  0.05362856  0.05283401     0.75260
C22         C  0.62279260  0.03514989  0.92843989     0.77650
Cd23       Cd  0.66749077  0.04167675  0.99209678     1.37460
O24         O  0.72468818  0.10391878  0.98721609    -0.57980
O25         O  0.64034821  0.06484202  0.94772656    -0.56150
C26         C  0.68627310  0.99103727  0.02650734     0.77610
O27         O  0.62415680  0.00673318  0.93941837    -0.58520
O28         O  0.71922019  0.06211292  0.94769855    -0.56970
O29         O  0.61428680  0.02301427  0.03484996    -0.56960
O30         O  0.70686245  0.02637789  0.02904575    -0.56140
C31         C  0.87501540  0.71545993  0.85600260     0.01040
C32         C  0.83949253  0.71042778  0.85217012     0.01040
C33         C  0.83816174  0.70715865  0.46847829     0.01040
C34         C  0.87518967  0.71557166  0.46554945     0.01040
O35         O  0.72987966  0.69043518  0.60969495    -0.57340
C36         C  0.64977380  0.67821841  0.69569329     0.75290
O37         O  0.76541981  0.75900937  0.71414566    -0.58500
C38         C  0.76280013  0.71691746  0.60144111     0.75260
C39         C  0.71144950  0.78111784  0.62552734     0.77650
Cd40       Cd  0.72156130  0.72634025  0.66160426     1.37460
O41         O  0.66136254  0.66699066  0.66849962    -0.57340
O42         O  0.69046572  0.74638181  0.61866292    -0.56150
C43         C  0.76880825  0.73102786  0.72214943     0.77610
O44         O  0.73534867  0.79060873  0.65155323    -0.58520
O45         O  0.67094658  0.71212542  0.70560735    -0.56970
O46         O  0.77531640  0.74622388  0.62122567    -0.56960
O47         O  0.75038791  0.70196989  0.70199648    -0.56140
O48         O  0.05632935  0.78322490  0.65475804    -0.57340
C49         C  0.95761544  0.71910470  0.72375931     0.75290
O50         O  0.95790307  0.68347205  0.60815141    -0.58500
C51         C  0.07127039  0.77314290  0.62970723     0.75260
C52         C  0.02696196  0.67533519  0.69812192     0.77650
Cd53       Cd  0.00075189  0.71881597  0.66118918     1.37470
O54         O  0.98958086  0.74757844  0.71650189    -0.57340
O55         O  0.04118580  0.71030932  0.70281716    -0.56150
C56         C  0.95431436  0.71092949  0.59814484     0.77610
O57         O  0.00179481  0.65971233  0.67309691    -0.58520
O58         O  0.94448404  0.69259299  0.70015366    -0.56970
O59         O  0.05278363  0.73897050  0.61970924    -0.56960
O60         O  0.97142773  0.74064107  0.61772509    -0.56140
C61         C  0.21393062  0.38992103  0.13658558     0.01040
C62         C  0.18602498  0.39859686  0.14056380     0.01040
C63         C  0.18478162  0.39499699  0.52598604     0.01040
C64         C  0.21939387  0.39736276  0.52590746     0.01040
O65         O  0.00025110  0.32974034  0.34037803    -0.57340
C66         C  0.09720101  0.38420571  0.27224367     0.75290
O67         O  0.07022387  0.45790051  0.32279434    -0.58500
C68         C  0.98470981  0.33970956  0.36478948     0.75260
C69         C  0.10237665  0.39890119  0.39644718     0.77650
Cd70       Cd  0.05670249  0.39276542  0.33344092     1.37470
O71         O  0.06390416  0.35830945  0.27967071    -0.57340
O72         O  0.08708106  0.37047664  0.37508716    -0.56150
C73         C  0.04383718  0.44776757  0.29935470     0.77610
O74         O  0.09670987  0.42545812  0.38848410    -0.58520
O75         O  0.11094149  0.41255976  0.29368986    -0.56970
O76         O  0.00196234  0.37425627  0.37347766    -0.56960
O77         O  0.02318620  0.41278172  0.29343794    -0.56140
O78         O  0.32767228  0.42414835  0.38018925    -0.57340
C79         C  0.40446856  0.44140113  0.29263221     0.75290
O80         O  0.32695862  0.32479054  0.34032769    -0.58500
C81         C  0.29712390  0.39616945  0.39147296     0.75260
C82         C  0.28761779  0.37812174  0.26825922     0.77650
Cd83       Cd  0.33587681  0.38797485  0.32942208     1.37470
O84         O  0.39111582  0.45202963  0.31864641    -0.57340
O85         O  0.30381929  0.40780949  0.28774872    -0.56150
C86         C  0.35281102  0.33631516  0.36457674     0.77610
O87         O  0.29188983  0.35109367  0.27799154    -0.58520
O88         O  0.38780801  0.40644605  0.28574213    -0.56970
O89         O  0.28476123  0.36569458  0.37352624    -0.56960
O90         O  0.37154337  0.37148857  0.37056052    -0.56140
C91         C  0.84469377  0.20658472  0.86016751     0.01040
C92         C  0.87868712  0.24002695  0.85774077     0.01040
C93         C  0.86919623  0.24160574  0.46500919     0.01040
C94         C  0.83078226  0.21546123  0.46658500     0.01040
O95         O  0.73224704  0.02384586  0.65477371    -0.57340
C96         C  0.77048356  0.12116073  0.72569984     0.75290
O97         O  0.73475518  0.12657569  0.61383319    -0.58500
C98         C  0.70953877  0.01027921  0.62751083     0.75260
C99         C  0.65310825  0.05577440  0.69275613     0.77650
Cd100      Cd  0.72599879  0.08008478  0.66200571     1.37470
O101        O  0.77294173  0.09397796  0.71230642    -0.57340
O102        O  0.67311778  0.04235433  0.70295274    -0.56150
C103        C  0.76537934  0.13040096  0.60169822     0.77610
O104        O  0.66647212  0.07991621  0.66691640    -0.58520
O105        O  0.74834155  0.12897180  0.70926278    -0.56970
O106        O  0.69455045  0.02885761  0.61740915    -0.56960
O107        O  0.77817779  0.11255228  0.61852851    -0.56140
O108        O  0.99334854  0.32283182  0.71493524    -0.57340
C109        C  0.07111911  0.37547894  0.63007649     0.75290
O110        O  0.96335516  0.35849590  0.60631396    -0.58500
C111        C  0.96061991  0.31600814  0.72310597     0.75260
C112        C  0.02262804  0.43551563  0.69318040     0.77650
Cd113      Cd  0.00177501  0.36341661  0.66115701     1.37460
O114        O  0.05352227  0.35044952  0.65436310    -0.57340
O115        O  0.03802946  0.41684702  0.70150441    -0.56150
C116        C  0.95548555  0.32560242  0.59707172     0.77610
O117        O  0.99651960  0.42077653  0.66910660    -0.58520
O118        O  0.05771079  0.39609111  0.62210634    -0.56970
O119        O  0.94720540  0.33060209  0.70191924    -0.56960
O120        O  0.96841300  0.31059279  0.61827031    -0.56140
C121        C  0.51577901  0.52249210  0.17959597     0.01040
C122        C  0.54594761  0.55920054  0.18119130     0.01040
C123        C  0.50980323  0.54288826  0.80413388     0.01040
C124        C  0.54162921  0.57828426  0.80321375     0.01040
O125        O  0.66221681  0.66163569  0.04969735    -0.57340
C126        C  0.74216524  0.71338330  0.96535726     0.75290
O127        O  0.62910574  0.69374344  0.94490256    -0.58500
C128        C  0.63057660  0.65762357  0.05840502     0.75260
C129        C  0.70017239  0.77709088  0.02772370     0.77650
Cd130      Cd  0.67408160  0.70382557  0.99670317     1.37460
O131        O  0.72423206  0.68879614  0.98998644    -0.57340
O132        O  0.71110217  0.75517283  0.03861807    -0.56150
C133        C  0.62695303  0.66345215  0.93372265     0.77610
O134        O  0.67710302  0.76537970  0.00074028    -0.58520
O135        O  0.73038416  0.73541713  0.95758129    -0.56970
O136        O  0.61980590  0.67562534  0.03881509    -0.56960
O137        O  0.64508126  0.65212168  0.95229341    -0.56140
O138        O  0.38133069  0.34610786  0.98110554    -0.57340
C139        C  0.42894715  0.43732305  0.05423781     0.75290
O140        O  0.38989127  0.45248054  0.94314750    -0.58500
C141        C  0.35577624  0.33340889  0.95654833     0.75260
C142        C  0.31018994  0.39420044  0.02292283     0.77650
Cd143      Cd  0.37921914  0.40518123  0.99129678     1.37470
O144        O  0.41407259  0.40282055  0.04583674    -0.57340
O145        O  0.32531550  0.37563540  0.03273719    -0.56150
C146        C  0.42039182  0.45589233  0.93133606     0.77610
O147        O  0.32670820  0.41769679  0.99718087    -0.58520
O148        O  0.42131139  0.45690878  0.03322212    -0.56970
O149        O  0.34238687  0.35410405  0.94890484    -0.56960
O150        O  0.43131665  0.43598990  0.94747051    -0.56140
C151        C  0.73320762  0.92420517  0.13755369     0.01040
C152        C  0.73545633  0.89190801  0.13724649     0.01040
C153        C  0.70831845  0.90989489  0.51788739     0.01040
C154        C  0.71128417  0.87841674  0.51202163     0.01040
O155        O  0.65796822  0.75265029  0.37474186    -0.57340
C156        C  0.63386039  0.67132584  0.28988984     0.75290
O157        O  0.73146669  0.78671203  0.27447772    -0.58500
C158        C  0.68469850  0.78602644  0.38066056     0.75260
C159        C  0.74168462  0.72549769  0.36285397     0.77650
Cd160      Cd  0.69085663  0.74109346  0.32271054     1.37470
O161        O  0.62512337  0.69004837  0.31152174    -0.57340
O162        O  0.70843518  0.71439861  0.37350544    -0.56150
C163        C  0.70543128  0.79107335  0.26141501     0.77610
O164        O  0.75115290  0.74136401  0.33140732    -0.58520
O165        O  0.66863457  0.68396496  0.28499439    -0.56970
O166        O  0.71245614  0.79786865  0.35884003    -0.56960
O167        O  0.67347855  0.77224776  0.27644644    -0.56140
O168        O  0.74644322  0.08635865  0.33654008    -0.57340
C169        C  0.70189280  0.98905851  0.26798614     0.75290
O170        O  0.65426187  0.97934060  0.37980945    -0.58500
C171        C  0.73467236  0.09813739  0.36298693     0.75260
C172        C  0.63201536  0.03805762  0.29345160     0.77650
Cd173      Cd  0.68670870  0.02561393  0.32872621     1.37470
O174        O  0.72568490  0.02238985  0.27827344    -0.57340
O175        O  0.66705265  0.05946088  0.28905678    -0.56150
C176        C  0.68453084  0.98175009  0.39108412     0.77610
O177        O  0.62139389  0.01106314  0.31605338    -0.58520
O178        O  0.67155904  0.97315338  0.28619724    -0.56970
O179        O  0.70067048  0.07646764  0.37241704    -0.56960
O180        O  0.71411737  0.00328049  0.37312257    -0.56140
C181        C  0.05554501  0.55234399  0.79757308     0.01040
C182        C  0.05889520  0.58717164  0.80216840     0.01040
O183        O  0.09020259  0.74773446  0.00499431    -0.57340
C184        C  0.03965771  0.65288028  0.93700341     0.75290
O185        O  0.98701598  0.64655742  0.04607174    -0.58500
C186        C  0.08067500  0.76233355  0.03073533     0.75260
C187        C  0.97543178  0.71044486  0.96190860     0.77650
Cd188      Cd  0.02667995  0.69220506  0.99674692     1.37460
O189        O  0.06536813  0.68486377  0.94857748    -0.57340
O190        O  0.00948000  0.72545891  0.95213618    -0.56150
C191        C  0.01290564  0.64070802  0.05646498     0.77610
O192        O  0.96536026  0.68756002  0.98873160    -0.58520
O193        O  0.00820692  0.63981761  0.95300465    -0.56970
O194        O  0.04635128  0.74466639  0.03989806    -0.56960
O195        O  0.04411646  0.65930951  0.04005389    -0.56140
C196        C  0.01195846  0.55910818  0.18713431     0.01040
C197        C  0.00854724  0.52420142  0.19018865     0.01040
O198        O  0.00229373  0.42281342  0.04536324    -0.57340
C199        C  0.98033433  0.34883818  0.96334320     0.75290
O200        O  0.07411635  0.45804912  0.93672379    -0.58500
C201        C  0.02682834  0.45597605  0.05498594     0.75260
C202        C  0.09487866  0.40804079  0.02512218     0.77650
Cd203      Cd  0.03852038  0.41954579  0.99162707     1.37460
O204        O  0.97401363  0.36634379  0.98869686    -0.57340
O205        O  0.06035034  0.38319508  0.02607425    -0.56150
C206        C  0.04794277  0.46288183  0.92519596     0.77610
O207        O  0.10372687  0.43691453  0.00587855    -0.58520
O208        O  0.01431791  0.36217162  0.95368860    -0.56970
O209        O  0.05518802  0.47261255  0.03404385    -0.56960
O210        O  0.01852221  0.44907038  0.94486571    -0.56140
C211        C  0.21229475  0.90773655  0.13756418     0.01040
C212        C  0.17788574  0.87481147  0.13503245     0.01040
C213        C  0.22167934  0.89775094  0.52557168     0.01040
C214        C  0.18402470  0.86948565  0.52674437     0.01040
O215        O  0.05960242  0.68551483  0.32598086    -0.57340
C216        C  0.10351244  0.78338976  0.39360194     0.75290
O217        O  0.06443287  0.78648538  0.27509718    -0.58500
C218        C  0.04536373  0.67636174  0.29371473     0.75260
C219        C  0.98326195  0.72589115  0.35855329     0.77650
Cd220      Cd  0.05675539  0.74504472  0.32904092     1.37470
O221        O  0.10061900  0.75310794  0.38153894    -0.57340
O222        O  0.99984902  0.70812080  0.36576658    -0.56150
C223        C  0.09828698  0.79554933  0.26888576     0.77610
O224        O  0.99998380  0.75247447  0.33550176    -0.58520
O225        O  0.08572375  0.79542054  0.37529513    -0.56970
O226        O  0.03581549  0.69789545  0.27892088    -0.56960
O227        O  0.11291874  0.78388606  0.29203092    -0.56140
O228        O  0.29830852  0.01832678  0.28269681    -0.57340
C229        C  0.35148734  0.08939846  0.37022703     0.75290
O230        O  0.33652960  0.98042324  0.38359070    -0.58500
C231        C  0.29244126  0.98672056  0.27113680     0.75260
C232        C  0.41424216  0.04634893  0.29632552     0.77650
Cd233      Cd  0.34297763  0.02409988  0.33219329     1.37460
O234        O  0.33607325  0.07979311  0.33852725    -0.57340
O235        O  0.39606069  0.06311966  0.29230147    -0.56150
C236        C  0.30232799  0.97024387  0.38985424     0.77610
O237        O  0.40049435  0.01968669  0.31951835    -0.58520
O238        O  0.36419144  0.06981447  0.38353184    -0.56970
O239        O  0.31037285  0.97366201  0.28734866    -0.56960
O240        O  0.28829580  0.98428317  0.36897569    -0.56140
C241        C  0.32641999  0.21689214  0.85563541     0.01040
C242        C  0.34497805  0.19645298  0.85450643     0.01040
C243        C  0.39111824  0.25245917  0.46425803     0.01040
C244        C  0.38719813  0.21697430  0.46296614     0.01040
O245        O  0.34060750  0.09396936  0.71297951    -0.57340
C246        C  0.31470633  0.01810814  0.62708799     0.75290
O247        O  0.40628110  0.12437978  0.60163467    -0.58500
C248        C  0.36516181  0.12800661  0.71992578     0.75260
C249        C  0.42683335  0.07363811  0.69413322     0.77650
Cd250      Cd  0.37358958  0.08761934  0.65886825     1.37470
O251        O  0.30729083  0.03532948  0.65186872    -0.57340
O252        O  0.39180502  0.05302336  0.69923379    -0.56150
C253        C  0.38338512  0.13592795  0.59687454     0.77610
O254        O  0.43768915  0.09939464  0.67012406    -0.58520
O255        O  0.34902410  0.03168556  0.61878428    -0.56970
O256        O  0.39398711  0.14288326  0.69935252    -0.56960
O257        O  0.35782306  0.12543125  0.62099454    -0.56140
O258        O  0.39799748  0.35192240  0.61114830    -0.57340
C259        C  0.42072086  0.42796548  0.69646414     0.75290
O260        O  0.30175156  0.35682185  0.65878271    -0.58500
C261        C  0.37115664  0.32068924  0.59943447     0.75260
C262        C  0.34733950  0.30829715  0.72574954     0.77650
Cd263      Cd  0.36252553  0.35846108  0.66361690     1.37460
O264        O  0.42880786  0.40909749  0.67438488    -0.57340
O265        O  0.37844645  0.32500146  0.70885538    -0.56150
C266        C  0.31194182  0.37953776  0.63188026     0.77610
O267        O  0.32170325  0.31340599  0.71306367    -0.58520
O268        O  0.38606438  0.41579918  0.70153035    -0.56970
O269        O  0.34113197  0.30687987  0.61813709    -0.56960
O270        O  0.34556510  0.39280530  0.62111049    -0.56140
C271        C  0.41150827  0.30970556  0.55626111    -0.05310
C272        C  0.37520830  0.30163351  0.56585938     0.00620
C273        C  0.34445019  0.27601553  0.54331824    -0.07950
C274        C  0.35193575  0.26210930  0.51061222    -0.05330
C275        C  0.38819521  0.26928311  0.50109270     0.00610
C276        C  0.41834129  0.29215577  0.52599776    -0.07860
C277        C  0.45778122  0.29866664  0.52379212     0.62520
H278        H  0.43489305  0.32864556  0.57399420     0.13210
H279        H  0.32863568  0.24346523  0.49294416     0.13220
C280        C  0.30379383  0.26304886  0.55326686     0.62750
F281        F  0.46949410  0.29509073  0.55874689    -0.22420
F282        F  0.48213755  0.33467763  0.51121518    -0.19750
F283        F  0.45991516  0.27299509  0.50122956    -0.19420
F284        F  0.29909671  0.29375752  0.55678293    -0.19470
F285        F  0.29449728  0.24346644  0.58634018    -0.19800
F286        F  0.27872936  0.23925229  0.52649409    -0.22470
C287        C  0.36179887  0.19046605  0.52547490    -0.05310
C288        C  0.39029975  0.20010969  0.49905151     0.00620
C289        C  0.41645805  0.18796100  0.50471926    -0.07950
C290        C  0.41418813  0.16870602  0.53780772    -0.05330
C291        C  0.38575023  0.15956518  0.56448944     0.00610
C292        C  0.35901696  0.17102090  0.55814384    -0.07860
C293        C  0.32641594  0.16190449  0.58436621     0.62520
H294        H  0.33944467  0.19558299  0.51863325     0.13210
H295        H  0.43368643  0.15889402  0.54208034     0.13220
C296        C  0.44406540  0.19131091  0.47471124     0.62750
F297        F  0.30496807  0.17690408  0.57248348    -0.22420
F298        F  0.34006638  0.17675188  0.61931201    -0.19750
F299        F  0.30271091  0.12335286  0.58644095    -0.19420
F300        F  0.46141466  0.22626214  0.45828730    -0.19470
F301        F  0.42507906  0.16424680  0.44765369    -0.19800
F302        F  0.47200297  0.18589676  0.48906375    -0.22470
C303        C  0.36332871  0.27053747  0.81563707    -0.05310
C304        C  0.32867082  0.23753954  0.82073286     0.00620
C305        C  0.29899434  0.22780251  0.79462406    -0.07950
C306        C  0.30629490  0.25176218  0.76405372    -0.05330
C307        C  0.34159319  0.28446564  0.75873522     0.00610
C308        C  0.37043426  0.29423652  0.78544047    -0.07860
C309        C  0.40849107  0.33001271  0.78306225     0.62520
H310        H  0.38511211  0.27782756  0.83619963     0.13210
H311        H  0.28415224  0.24462783  0.74387705     0.13220
C312        C  0.25943542  0.19339828  0.79716067     0.62750
F313        F  0.42985768  0.33668799  0.81489559    -0.22420
F314        F  0.40351223  0.36040434  0.77839376    -0.19750
F315        F  0.42837498  0.32697340  0.75361199    -0.19420
F316        F  0.23302316  0.20443081  0.79891699    -0.19470
F317        F  0.25477042  0.17108784  0.82743110    -0.19800
F318        F  0.25139613  0.17147510  0.76566714    -0.22470
C319        C  0.32285818  0.16248773  0.79257289    -0.05310
C320        C  0.35320405  0.18354542  0.81715414     0.00620
C321        C  0.38907900  0.18913334  0.80608927    -0.07950
C322        C  0.39157908  0.17048470  0.77414817    -0.05330
C323        C  0.36077422  0.14920780  0.75085248     0.00610
C324        C  0.32687210  0.14838506  0.75815466    -0.07860
C325        C  0.29582875  0.13676925  0.72939825     0.62520
H326        H  0.29548837  0.15635491  0.80026850     0.13210
H327        H  0.41788079  0.17200536  0.76735719     0.13220
C328        C  0.42512735  0.21336771  0.82721144     0.62750
F329        F  0.29428390  0.16826673  0.71988932    -0.22420
F330        F  0.26166112  0.10993972  0.74417830    -0.19750
F331        F  0.30147059  0.12269957  0.69667059    -0.19420
F332        F  0.42669201  0.19326358  0.85681876    -0.19470
F333        F  0.42717882  0.24624282  0.83862291    -0.19800
F334        F  0.45654636  0.22360316  0.80534070    -0.22470
C335        C  0.34256244  0.15137232  0.44269310    -0.05310
C336        C  0.37017372  0.18799515  0.43104996     0.00620
C337        C  0.38500616  0.19097062  0.39416075    -0.07950
C338        C  0.37611993  0.15760273  0.37457620    -0.05330
C339        C  0.35491668  0.12215191  0.39051442     0.00610
C340        C  0.33742286  0.11864794  0.42504097    -0.07860
C341        C  0.31499573  0.08077407  0.44410054     0.62520
H342        H  0.32786049  0.14826127  0.46846015     0.13210
H343        H  0.38717836  0.15880544  0.34696200     0.13220
C344        C  0.40880707  0.22754158  0.37373855     0.62750
F345        F  0.29855009  0.08330866  0.47672694    -0.22420
F346        F  0.33865082  0.06742824  0.45295069    -0.19750
F347        F  0.28677173  0.05522266  0.42079761    -0.19420
F348        F  0.43893225  0.25191779  0.39527244    -0.19470
F349        F  0.38701190  0.24276739  0.36442478    -0.19800
F350        F  0.42317368  0.22260743  0.34072447    -0.22470
C351        C  0.24769209  0.96176420  0.55019976    -0.05310
C352        C  0.24014815  0.92504806  0.55723122     0.00620
C353        C  0.25385112  0.91831898  0.59094498    -0.07950
C354        C  0.27601840  0.94915135  0.61488918    -0.05330
C355        C  0.28502627  0.98581891  0.60610035     0.00610
C356        C  0.26937508  0.99205038  0.57418863    -0.07860
C357        C  0.27637954  0.03093463  0.56514546     0.62520
H358        H  0.23683499  0.96673114  0.52486400     0.13210
H359        H  0.28815375  0.94490690  0.63973447     0.13220
C360        C  0.24895363  0.88080801  0.60222560     0.62750
F361        F  0.25715970  0.03062900  0.53357206    -0.22420
F362        F  0.31440103  0.05544303  0.55937129    -0.19750
F363        F  0.26429664  0.04395936  0.59445856    -0.19420
F364        F  0.28370238  0.88535534  0.61078148    -0.19470
F365        F  0.23319477  0.85375262  0.57480945    -0.19800
F366        F  0.22631582  0.86800012  0.63342640    -0.22470
C367        C  0.11316293  0.82624721  0.44586862    -0.05310
C368        C  0.12496959  0.80384773  0.42782398     0.00620
C369        C  0.15635144  0.80279591  0.44240824    -0.07950
C370        C  0.17522885  0.82521334  0.47395578    -0.05330
C371        C  0.16320823  0.84764358  0.49206307     0.00610
C372        C  0.13123384  0.84794994  0.47762832    -0.07860
C373        C  0.11627911  0.87175205  0.49424817     0.62520
H374        H  0.08889794  0.82638219  0.43481153     0.13210
H375        H  0.19941890  0.82505777  0.48524926     0.13220
C376        C  0.17005145  0.77839988  0.42494399     0.62750
F377        F  0.08680738  0.86939366  0.47375050    -0.22420
F378        F  0.14426275  0.90913917  0.49507102    -0.19750
F379        F  0.10287092  0.85959907  0.52956016    -0.19420
F380        F  0.17826867  0.78737126  0.38782463    -0.19470
F381        F  0.14247758  0.74088750  0.42810548    -0.19800
F382        F  0.20224424  0.78337672  0.44214683    -0.22470
C383        C  0.29959102  0.94023732  0.45056196    -0.05310
C384        C  0.28040572  0.94554073  0.42139126     0.00620
C385        C  0.24101574  0.92982303  0.42466679    -0.07950
C386        C  0.22428328  0.91747774  0.45938049    -0.05330
C387        C  0.24260010  0.91143194  0.48890833     0.00610
C388        C  0.28100652  0.92158922  0.48353385    -0.07860
C389        C  0.30301061  0.91328599  0.51168262     0.62520
H390        H  0.32952827  0.95127160  0.44761936     0.13210
H391        H  0.19623514  0.91223350  0.46302821     0.13220
C392        C  0.21560210  0.92090398  0.39120861     0.62750
F393        F  0.33588701  0.91763067  0.49659232    -0.22420
F394        F  0.28174228  0.87650601  0.52328426    -0.19750
F395        F  0.31299834  0.93763103  0.54159538    -0.19420
F396        F  0.22545860  0.90267737  0.36525452    -0.19470
F397        F  0.21873075  0.95310431  0.37637671    -0.19800
F398        F  0.17809889  0.89683684  0.40001749    -0.22470
C399        C  0.26589242  0.98688447  0.20939891    -0.05310
C400        C  0.26697091  0.96636224  0.23962563     0.00620
C401        C  0.24478568  0.92671326  0.23855908    -0.07950
C402        C  0.22770212  0.90890542  0.20516693    -0.05330
C403        C  0.22729532  0.92887705  0.17391967     0.00610
C404        C  0.24481188  0.96886820  0.17719551    -0.07860
C405        C  0.24337992  0.99382087  0.14730119     0.62520
H406        H  0.28208773  0.01735457  0.21083392     0.13210
H407        H  0.21653045  0.87908659  0.20316872     0.13220
C408        C  0.23600021  0.90331689  0.27328220     0.62750
F409        F  0.24462175  0.02509618  0.16316251    -0.22420
F410        F  0.21054523  0.97532126  0.12692505    -0.19750
F411        F  0.27398109  0.00600089  0.12391841    -0.19420
F412        F  0.22393538  0.91886955  0.30003661    -0.19470
F413        F  0.26731477  0.90272443  0.28568811    -0.19800
F414        F  0.20741829  0.86646619  0.26750619    -0.22470
C415        C  0.15510812  0.82286626  0.17952566    -0.05310
C416        C  0.15491553  0.85530014  0.16885819     0.00620
C417        C  0.13456005  0.86766966  0.19097813    -0.07950
C418        C  0.11621669  0.84740599  0.22337290    -0.05330
C419        C  0.11904401  0.81663283  0.23518600     0.00610
C420        C  0.13967820  0.80474863  0.21318804    -0.07860
C421        C  0.14509865  0.77262973  0.22471843     0.62520
H422        H  0.16944776  0.81283206  0.16215917     0.13210
H423        H  0.10005610  0.85617865  0.24001339     0.13220
C424        C  0.13034044  0.90106979  0.18196114     0.62750
F425        F  0.16278559  0.76319734  0.19758218    -0.22420
F426        F  0.11038214  0.74141596  0.23143182    -0.19750
F427        F  0.16698891  0.78254763  0.25650215    -0.19420
F428        F  0.09250742  0.88903847  0.17820370    -0.19470
F429        F  0.14820435  0.91886456  0.14963240    -0.19800
F430        F  0.14514467  0.92699708  0.21077196    -0.22470
C431        C  0.00463492  0.57833249  0.25224599    -0.05310
C432        C  0.02590668  0.58673655  0.21924637     0.00620
C433        C  0.05878897  0.62290062  0.21606907    -0.07950
C434        C  0.06521177  0.65069105  0.24247611    -0.05330
C435        C  0.04138132  0.64348871  0.27280347     0.00610
C436        C  0.01215823  0.60623346  0.27937932    -0.07860
C437        C  0.98859315  0.59657317  0.31431467     0.62520
H438        H  0.98068696  0.55051328  0.25575996     0.13210
H439        H  0.08900001  0.67860713  0.23914778     0.13220
C440        C  0.08711312  0.63367894  0.18476251     0.62750
F441        F  0.96244603  0.55847204  0.31632955    -0.22420
F442        F  0.96959456  0.61606778  0.31508071    -0.19750
F443        F  0.01180748  0.60654050  0.34512590    -0.19420
F444        F  0.07678427  0.64790334  0.15542463    -0.19470
F445        F  0.08973614  0.60320170  0.17298040    -0.19800
F446        F  0.12269199  0.66111501  0.19646821    -0.22470
C447        C  0.98643329  0.46572328  0.09933750    -0.05310
C448        C  0.02263468  0.47384492  0.08922270     0.00620
C449        C  0.05340194  0.49695086  0.11286981    -0.07950
C450        C  0.04642453  0.51022159  0.14620679    -0.05330
C451        C  0.01043995  0.50350482  0.15608017     0.00610
C452        C  0.97965660  0.48051712  0.13201512    -0.07860
C453        C  0.93945096  0.46931208  0.14103533     0.62520
H454        H  0.96324120  0.44742328  0.08117876     0.13210
H455        H  0.07009152  0.52875659  0.16337830     0.13220
C456        C  0.09364413  0.50795097  0.10323198     0.62750
F457        F  0.91547233  0.45165632  0.11125032    -0.22420
F458        F  0.93697960  0.50040717  0.15030950    -0.19750
F459        F  0.92698021  0.44431502  0.17007518    -0.19420
F460        F  0.10516994  0.53021072  0.07186516    -0.19470
F461        F  0.09570114  0.47600658  0.09682026    -0.19800
F462        F  0.11867555  0.52827047  0.13154356    -0.22470
C463        C  0.14447905  0.80201295  0.05646732    -0.05310
C464        C  0.10861866  0.79684062  0.05073818     0.00620
C465        C  0.09990863  0.82313681  0.06607551    -0.07950
C466        C  0.12613294  0.85131398  0.08994556    -0.05330
C467        C  0.16048686  0.85407739  0.09931112     0.00610
C468        C  0.17083245  0.83007336  0.08056943    -0.07860
C469        C  0.20903926  0.83337723  0.08448535     0.62520
H470        H  0.15116275  0.78264310  0.04291916     0.13210
H471        H  0.11845101  0.86969555  0.10379904     0.13220
C472        C  0.06288624  0.82127459  0.05818467     0.62750
F473        F  0.20889461  0.80200209  0.07040423    -0.22420
F474        F  0.21974606  0.83695833  0.12108485    -0.19750
F475        F  0.23548070  0.86405443  0.06474296    -0.19420
F476        F  0.03395832  0.79145457  0.07701790    -0.19470
F477        F  0.05554221  0.81678115  0.02043805    -0.19800
F478        F  0.06376085  0.85385216  0.06942178    -0.22470
C479        C  0.98464350  0.61060745  0.11689392    -0.05310
C480        C  0.00776907  0.61430387  0.08668285     0.00620
C481        C  0.02717538  0.59428917  0.08687627    -0.07950
C482        C  0.02708295  0.57590129  0.11944059    -0.05330
C483        C  0.00559056  0.57349710  0.15087523     0.00610
C484        C  0.98206660  0.58939029  0.14843121    -0.07860
C485        C  0.95508924  0.58615495  0.17886049     0.62520
H486        H  0.96908249  0.62523041  0.11624152     0.13210
H487        H  0.04667715  0.56625489  0.12094686     0.13220
C488        C  0.04882697  0.59271747  0.05333352     0.62750
F489        F  0.92311542  0.58350334  0.16348660    -0.22420
F490        F  0.97237917  0.61777348  0.20144777    -0.19750
F491        F  0.94335072  0.55444012  0.20006434    -0.19420
F492        F  0.08275173  0.62617013  0.05029987    -0.19470
F493        F  0.02789157  0.58637806  0.02132253    -0.19800
F494        F  0.05631445  0.56376011  0.05622000    -0.22470
C495        C  0.02470982  0.49403180  0.83527586    -0.05310
C496        C  0.05657420  0.52997853  0.83023918     0.00620
C497        C  0.08771705  0.54165647  0.85478735    -0.07950
C498        C  0.08365349  0.51905623  0.88562120    -0.05330
C499        C  0.05132566  0.48369775  0.89072366     0.00610
C500        C  0.02240190  0.46995052  0.86365553    -0.07860
C501        C  0.98927166  0.42988312  0.86245180     0.62520
H502        H  0.00145777  0.48382500  0.81598914     0.13210
H503        H  0.10636290  0.52893932  0.90569746     0.13220
C504        C  0.12616418  0.57629956  0.84958137     0.62750
F505        F  0.98284812  0.41648338  0.82619731    -0.22420
F506        F  0.95747944  0.42947707  0.87526403    -0.19750
F507        F  0.99551491  0.40556219  0.88317281    -0.19420
F508        F  0.13233766  0.60229123  0.87721640    -0.19470
F509        F  0.13030780  0.59263409  0.81544171    -0.19800
F510        F  0.15347736  0.56646514  0.85224706    -0.22470
C511        C  0.02845125  0.57994512  0.86355630    -0.05310
C512        C  0.06041083  0.60148446  0.84129052     0.00620
C513        C  0.08662452  0.63907334  0.85260038    -0.07950
C514        C  0.07943375  0.65343528  0.88507307    -0.05330
C515        C  0.04624552  0.63281126  0.90580826     0.00610
C516        C  0.02038302  0.59487929  0.89516961    -0.07860
C517        C  0.98346837  0.57031383  0.91549653     0.62520
H518        H  0.00773957  0.55210906  0.85385320     0.13210
H519        H  0.09936960  0.68228467  0.89305143     0.13220
C520        C  0.12147314  0.66651565  0.83094139     0.62750
F521        F  0.96432454  0.53382401  0.90168618    -0.22420
F522        F  0.96018356  0.58503456  0.91150138    -0.19750
F523        F  0.99033846  0.56844332  0.95275246    -0.19420
F524        F  0.11822703  0.69689621  0.82051021    -0.19470
F525        F  0.12734670  0.65122908  0.79935830    -0.19800
F526        F  0.15283111  0.67934189  0.85345869    -0.22470
C527        C  0.66965980  0.90804242  0.46303286    -0.05310
C528        C  0.70189456  0.92898563  0.48548319     0.00620
C529        C  0.72576707  0.96806173  0.47832034    -0.07950
C530        C  0.71750059  0.98384654  0.44812806    -0.05330
C531        C  0.68697097  0.96242407  0.42444327     0.00610
C532        C  0.66223899  0.92388773  0.43198305    -0.07860
C533        C  0.62901653  0.89945816  0.40684092     0.62520
H534        H  0.65024261  0.87897618  0.47004479     0.13210
H535        H  0.73529027  0.01366473  0.44266447     0.13220
C536        C  0.75907767  0.99471666  0.50248667     0.62750
F537        F  0.61041911  0.86209408  0.41745921    -0.22420
F538        F  0.64137351  0.90138037  0.37069219    -0.19750
F539        F  0.60361184  0.91184018  0.40810345    -0.19420
F540        F  0.78592719  0.02444571  0.48178761    -0.19470
F541        F  0.77696056  0.97775042  0.51781909    -0.19800
F542        F  0.74670108  0.00855944  0.53067879    -0.22470
C543        C  0.67069092  0.82153346  0.47429020    -0.05310
C544        C  0.70228094  0.85833069  0.47496632     0.00620
C545        C  0.72394447  0.87244550  0.44188303    -0.07950
C546        C  0.71411444  0.84852338  0.41079987    -0.05330
C547        C  0.68554576  0.81044914  0.41184509     0.00610
C548        C  0.66227880  0.79695673  0.44377817    -0.07860
C549        C  0.62962252  0.75671010  0.44666947     0.62520
H550        H  0.65332307  0.81149793  0.49892397     0.13210
H551        H  0.73104718  0.85936237  0.38588059     0.13220
C552        C  0.75894852  0.91085106  0.43731266     0.62750
F553        F  0.61036209  0.75029140  0.47992022    -0.22420
F554        F  0.64287915  0.73202576  0.44461339    -0.19750
F555        F  0.60429063  0.74919397  0.41815956    -0.19420
F556        F  0.77065033  0.93129236  0.46967423    -0.19470
F557        F  0.75197077  0.93109154  0.41138327    -0.19800
F558        F  0.78827301  0.90661090  0.42464760    -0.22470
C559        C  0.69576976  0.91803687  0.19447427    -0.05310
C560        C  0.72847286  0.94050904  0.17350186     0.00620
C561        C  0.75199956  0.97890603  0.18421581    -0.07950
C562        C  0.74197425  0.99283062  0.21510462    -0.05330
C563        C  0.70946843  0.97044331  0.23607883     0.00610
C564        C  0.68568093  0.93203119  0.22551380    -0.07860
C565        C  0.64933577  0.90569631  0.24587118     0.62520
H566        H  0.67698827  0.88947321  0.18510827     0.13210
H567        H  0.76005827  0.02220266  0.22268751     0.13220
C568        C  0.78802219  0.00721885  0.16488441     0.62750
F569        F  0.63156358  0.86954298  0.23122573    -0.22420
F570        F  0.62456867  0.91877365  0.24302618    -0.19750
F571        F  0.65692062  0.90346290  0.28287145    -0.19420
F572        F  0.81692591  0.02382397  0.19066461    -0.19470
F573        F  0.79907751  0.99157553  0.13768063    -0.19800
F574        F  0.78311456  0.03483260  0.14910141    -0.22470
C575        C  0.74400363  0.85333985  0.23204548    -0.05310
C576        C  0.71199354  0.81719894  0.23056047     0.00620
C577        C  0.68710772  0.80688430  0.19998200    -0.07950
C578        C  0.69580090  0.83310407  0.17155186    -0.05330
C579        C  0.72871028  0.86897997  0.17188514     0.00610
C580        C  0.75304990  0.87961277  0.20336296    -0.07860
C581        C  0.78910273  0.91709049  0.20864406     0.62520
H582        H  0.76248901  0.86111026  0.25598451     0.13210
H583        H  0.67665917  0.82552632  0.14828870     0.13220
C584        C  0.65211567  0.76797476  0.19652102     0.62750
F585        F  0.81853604  0.91100320  0.21541813    -0.22420
F586        F  0.78513514  0.93558353  0.23897666    -0.19750
F587        F  0.79862796  0.94014440  0.17833730    -0.19420
F588        F  0.62625393  0.76354436  0.22347111    -0.19470
F589        F  0.66168737  0.74062671  0.20071825    -0.19800
F590        F  0.63486496  0.76236800  0.16220182    -0.22470
C591        C  0.33105776  0.23353945  0.92642169    -0.05310
C592        C  0.31643125  0.23219825  0.89059191     0.00620
C593        C  0.30309865  0.25752540  0.88588039    -0.07950
C594        C  0.32178674  0.29227188  0.90378993    -0.05330
C595        C  0.34205885  0.29707761  0.93639239     0.00610
C596        C  0.34333916  0.26553525  0.95013269    -0.07860
C597        C  0.35622134  0.26515487  0.98948008     0.62520
H598        H  0.33294654  0.21011960  0.93613904     0.13210
H599        H  0.31521017  0.31345744  0.89551795     0.13220
C600        C  0.26328005  0.24499471  0.87433491     0.62750
F601        F  0.34999134  0.23002865  0.99900367    -0.22420
F602        F  0.33641424  0.27431683  0.01428242    -0.19750
F603        F  0.39428545  0.29093518  0.99300215    -0.19420
F604        F  0.24133020  0.20637249  0.87253721    -0.19470
F605        F  0.26364168  0.26121370  0.84083677    -0.19800
F606        F  0.24659740  0.25664920  0.90054349    -0.22470
C607        C  0.74647860  0.82755040  0.06847974    -0.05310
C608        C  0.71338659  0.81350093  0.04743180     0.00620
C609        C  0.69184483  0.83123634  0.05050636    -0.07950
C610        C  0.70116547  0.85838856  0.07870928    -0.05330
C611        C  0.73289356  0.87072450  0.10187751     0.00610
C612        C  0.75706478  0.85611403  0.09522922    -0.07860
C613        C  0.79154711  0.86624493  0.11872818     0.62520
H614        H  0.76323804  0.81432284  0.06544113     0.13210
H615        H  0.68130756  0.86719115  0.08495688     0.13220
C616        C  0.65801534  0.82042863  0.02582503     0.62750
F617        F  0.81671892  0.85969948  0.09936208    -0.22420
F618        F  0.78079650  0.84448393  0.15037567    -0.19750
F619        F  0.81055116  0.90373455  0.12856146    -0.19420
F620        F  0.63022800  0.78357329  0.03236280    -0.19470
F621        F  0.66884983  0.82444809  0.98892406    -0.19800
F622        F  0.64286339  0.84313138  0.03222131    -0.22470
C623        C  0.49506101  0.48664442  0.76718461    -0.05310
C624        C  0.49228909  0.51912841  0.76997465     0.00620
C625        C  0.46766781  0.52285416  0.74488240    -0.07950
C626        C  0.44516509  0.49266331  0.72062373    -0.05330
C627        C  0.44955087  0.46131686  0.71727029     0.00610
C628        C  0.47760659  0.46015027  0.73848298    -0.07860
C629        C  0.48983623  0.43190550  0.73046073     0.62520
H630        H  0.51182106  0.48239235  0.78744248     0.13210
H631        H  0.42392646  0.49366861  0.70382632     0.13220
C632        C  0.46179229  0.55610643  0.74295072     0.62750
F633        F  0.51758232  0.43580212  0.75473276    -0.22420
F634        F  0.50407983  0.43728662  0.69475265    -0.19750
F635        F  0.45976214  0.39586167  0.73332104    -0.19420
F636        F  0.46573420  0.56798138  0.70649516    -0.19470
F637        F  0.48709128  0.58633002  0.76385859    -0.19800
F638        F  0.42580750  0.54528887  0.75486065    -0.22470
C639        C  0.59852696  0.60978598  0.84193978    -0.05310
C640        C  0.56074256  0.59991645  0.83832860     0.00620
C641        C  0.54546400  0.61376803  0.86564909    -0.07950
C642        C  0.56792019  0.63420642  0.89645114    -0.05330
C643        C  0.60504383  0.64233318  0.90039962     0.00610
C644        C  0.62075465  0.63025387  0.87242689    -0.07860
C645        C  0.66077642  0.63835602  0.87469049     0.62520
H646        H  0.61044116  0.60031128  0.82061316     0.13210
H647        H  0.55632031  0.64417868  0.91768994     0.13220
C648        C  0.50708708  0.61005372  0.86398487     0.62750
F649        F  0.67194548  0.62911907  0.84192113    -0.22420
F650        F  0.66304001  0.61711498  0.90290735    -0.19750
F651        F  0.68523274  0.67623847  0.88163428    -0.19420
F652        F  0.48545100  0.58835726  0.89338538    -0.19470
F653        F  0.48814042  0.59414770  0.83153357    -0.19800
F654        F  0.51123112  0.64539553  0.86699913    -0.22470
C655        C  0.45120497  0.51317238  0.84154779    -0.05310
C656        C  0.48955864  0.52395330  0.83975494     0.00620
C657        C  0.50460815  0.51290782  0.86952917    -0.07950
C658        C  0.48133247  0.49353293  0.89975045    -0.05330
C659        C  0.44293454  0.48156231  0.90056862     0.00610
C660        C  0.42746576  0.49190872  0.87104340    -0.07860
C661        C  0.38599875  0.47967295  0.86968447     0.62520
H662        H  0.43960918  0.52109492  0.81887877     0.13210
H663        H  0.49317882  0.48583094  0.92252523     0.13220
C664        C  0.54346119  0.51772842  0.87142117     0.62750
F665        F  0.37666132  0.49090400  0.83728102    -0.22420
F666        F  0.37730122  0.49546185  0.89926646    -0.19750
F667        F  0.36425611  0.44085252  0.87136531    -0.19420
F668        F  0.56343800  0.54197715  0.90036693    -0.19470
F669        F  0.56362066  0.53128037  0.83947792    -0.19800
F670        F  0.54020459  0.48321128  0.87798871    -0.22470
C671        C  0.57950354  0.57549624  0.24253539    -0.05310
C672        C  0.55761220  0.58191551  0.21702366     0.00620
C673        C  0.55532593  0.61491052  0.22195530    -0.07950
C674        C  0.57959637  0.64266922  0.24739347    -0.05330
C675        C  0.60508274  0.63813928  0.26898470     0.00610
C676        C  0.60407939  0.60344196  0.26785783    -0.07860
C677        C  0.62978535  0.59644963  0.29226557     0.62520
H678        H  0.58010446  0.54981561  0.24041326     0.13210
H679        H  0.57969791  0.66893984  0.24930982     0.13220
C680        C  0.52813257  0.62242144  0.20115348     0.62750
F681        F  0.62109858  0.55938610  0.29018824    -0.22420
F682        F  0.62624199  0.60450402  0.32892922    -0.19750
F683        F  0.66676068  0.61906705  0.28115091    -0.19420
F684        F  0.49898659  0.59003002  0.18597688    -0.19470
F685        F  0.54700457  0.64829561  0.17339513    -0.19800
F686        F  0.51242025  0.63691002  0.22529280    -0.22470
C687        C  0.48843056  0.48850171  0.08040252    -0.05310
C688        C  0.45466468  0.45458497  0.08626594     0.00620
C689        C  0.44764122  0.43759098  0.12168789    -0.07950
C690        C  0.47211796  0.45830389  0.15112542    -0.05330
C691        C  0.50337110  0.49505682  0.14612001     0.00610
C692        C  0.51551879  0.50465735  0.10872548    -0.07860
C693        C  0.55467135  0.51479577  0.09645042     0.62520
H694        H  0.49638555  0.49849928  0.05215575     0.13210
H695        H  0.46533323  0.44664972  0.17875588     0.13220
C696        C  0.41356351  0.39902198  0.12904239     0.62750
F697        F  0.55246978  0.48660298  0.07354503    -0.22420
F698        F  0.57682486  0.51773791  0.12623135    -0.19750
F699        F  0.57140315  0.54775461  0.07642134    -0.19420
F700        F  0.41663758  0.37205804  0.10891585    -0.19470
F701        F  0.38103474  0.39846206  0.11874047    -0.19800
F702        F  0.41042940  0.38949173  0.16623129    -0.22470
C703        C  0.54918073  0.59167506  0.12224417    -0.05310
C704        C  0.56775195  0.58113436  0.14780826     0.00620
C705        C  0.60739053  0.59703243  0.14412618    -0.07950
C706        C  0.62651576  0.62311404  0.11572547    -0.05330
C707        C  0.60779257  0.63290682  0.08969452     0.00610
C708        C  0.56824493  0.61725237  0.09328456    -0.07860
C709        C  0.54579611  0.62696175  0.06691202     0.62520
H710        H  0.51932003  0.57991642  0.12532304     0.13210
H711        H  0.65672114  0.63539114  0.11332003     0.13220
C712        C  0.63085663  0.58627396  0.16772141     0.62750
F713        F  0.50768403  0.60735528  0.07497390    -0.22420
F714        F  0.55006210  0.61803698  0.03077773    -0.19750
F715        F  0.55815063  0.66494593  0.06971126    -0.19420
F716        F  0.60943199  0.55214828  0.18503507    -0.19470
F717        F  0.65048109  0.61402231  0.19408312    -0.19800
F718        F  0.65649281  0.58291129  0.14555644    -0.22470
C719        C  0.00590974  0.48083005  0.71990178    -0.05310
C720        C  0.03373196  0.47171062  0.71221987     0.00620
C721        C  0.07066734  0.49539213  0.72602904    -0.07950
C722        C  0.07696606  0.52390724  0.75130887    -0.05330
C723        C  0.04867513  0.53160512  0.76148402     0.00610
C724        C  0.01261951  0.51059959  0.74435608    -0.07860
C725        C  0.98074242  0.51801934  0.75241414     0.62520
H726        H  0.97818382  0.46318473  0.70799841     0.13210
H727        H  0.10392443  0.53907199  0.76532662     0.13220
C728        C  0.10345053  0.49021840  0.71557887     0.62750
F729        F  0.94657062  0.48906488  0.73930160    -0.22420
F730        F  0.98781995  0.55055808  0.73491205    -0.19750
F731        F  0.97683550  0.52167203  0.79008472    -0.19420
F732        F  0.10278666  0.48313050  0.67784176    -0.19470
F733        F  0.10145001  0.46067199  0.73529628    -0.19800
F734        F  0.13768467  0.52222747  0.72356805    -0.22470
C735        C  0.67249853  0.92829267  0.55882968    -0.05310
C736        C  0.70409713  0.92394965  0.55570363     0.00620
C737        C  0.73254447  0.94096658  0.58382266    -0.07950
C738        C  0.73104099  0.96657872  0.60888894    -0.05330
C739        C  0.70306227  0.97612065  0.60682090     0.00610
C740        C  0.67172702  0.95471182  0.58308476    -0.07860
C741        C  0.63830920  0.96060193  0.58149958     0.62520
H742        H  0.64977912  0.91354265  0.53902039     0.13210
H743        H  0.75315421  0.98099826  0.62932883     0.13220
C744        C  0.76388793  0.93250588  0.58970145     0.62750
F745        F  0.60820477  0.93167872  0.56246514    -0.22420
F746        F  0.64844491  0.99382472  0.56335077    -0.19750
F747        F  0.62619137  0.96186663  0.61707119    -0.19420
F748        F  0.77882261  0.92959714  0.55665373    -0.19470
F749        F  0.74995576  0.89941920  0.60922568    -0.19800
F750        F  0.79331518  0.96053643  0.61021873    -0.22470
C751        C  0.81818783  0.19152443  0.39811964    -0.05310
C752        C  0.80453243  0.19546862  0.43299520     0.00620
C753        C  0.76459257  0.17320747  0.43768448    -0.07950
C754        C  0.74348838  0.14161974  0.41482791    -0.05330
C755        C  0.75893364  0.13431796  0.38342638     0.00610
C756        C  0.79611949  0.16179922  0.37301500    -0.07860
C757        C  0.81299103  0.15999582  0.33597875     0.62520
H758        H  0.84650666  0.21026410  0.39014697     0.13210
H759        H  0.71406664  0.12279220  0.42144316     0.13220
C760        C  0.74236842  0.18286585  0.46449626     0.62750
F761        F  0.84714713  0.19241910  0.32923582    -0.22420
F762        F  0.78880151  0.15586620  0.30738479    -0.19750
F763        F  0.81904959  0.13002909  0.33565689    -0.19420
F764        F  0.76159849  0.22068600  0.47278134    -0.19470
F765        F  0.73436553  0.16190791  0.49653821    -0.19800
F766        F  0.70860217  0.17491293  0.44847987    -0.22470
C767        C  0.79169346  0.19020307  0.56683733    -0.05310
C768        C  0.78440747  0.15322200  0.56854894     0.00620
C769        C  0.79291513  0.13762924  0.53759118    -0.07950
C770        C  0.80742017  0.15929317  0.50545294    -0.05330
C771        C  0.81522729  0.19651138  0.50333629     0.00610
C772        C  0.80689207  0.21236025  0.53478650    -0.07860
C773        C  0.81081231  0.25088597  0.53617720     0.62520
H774        H  0.78469091  0.20170587  0.59067289     0.13210
H775        H  0.81310839  0.14726028  0.48121103     0.13220
C776        C  0.78549236  0.09773453  0.53779147     0.62750
F777        F  0.77649024  0.24700892  0.54561317    -0.22420
F778        F  0.82183234  0.26957066  0.50278854    -0.19750
F779        F  0.83675392  0.27255753  0.56324787    -0.19420
F780        F  0.74815414  0.07303151  0.54644215    -0.19470
F781        F  0.80844364  0.09465761  0.56367638    -0.19800
F782        F  0.79279142  0.08747885  0.50352659    -0.22470
C783        C  0.89886523  0.29848375  0.50621516    -0.05310
C784        C  0.89137684  0.26150674  0.49992338     0.00620
C785        C  0.90639358  0.24668188  0.52592101    -0.07950
C786        C  0.92674626  0.26880104  0.55673673    -0.05330
C787        C  0.93298391  0.30510947  0.56337575     0.00610
C788        C  0.91832059  0.32018789  0.53764576    -0.07860
C789        C  0.92208012  0.35850344  0.54318941     0.62520
H790        H  0.88804328  0.31026720  0.48678033     0.13210
H791        H  0.93811923  0.25712549  0.57607226     0.13220
C792        C  0.90359342  0.20876001  0.52350043     0.62750
F793        F  0.90407201  0.36655523  0.51551602    -0.22420
F794        F  0.95967293  0.38637644  0.54281193    -0.19750
F795        F  0.90597617  0.35932187  0.57670652    -0.19420
F796        F  0.88323504  0.18763972  0.49370761    -0.19470
F797        F  0.88661584  0.18852378  0.55532697    -0.19800
F798        F  0.93941872  0.21403397  0.52088433    -0.22470
C799        C  0.90043245  0.29599988  0.89704871    -0.05310
C800        C  0.90107198  0.26280229  0.89028353     0.00620
C801        C  0.92712553  0.25667604  0.91028945    -0.07950
C802        C  0.95210300  0.28488160  0.93525565    -0.05330
C803        C  0.94958089  0.31689121  0.94299693     0.00610
C804        C  0.92119036  0.32092090  0.92578042    -0.07860
C805        C  0.91195234  0.35059228  0.93813049     0.62520
H806        H  0.88238268  0.30185890  0.88042204     0.13210
H807        H  0.97394176  0.28198925  0.94872488     0.13220
C808        C  0.93129487  0.22243010  0.90577637     0.62750
F809        F  0.88315353  0.34922676  0.91727380    -0.22420
F810        F  0.94301269  0.38620143  0.93500792    -0.19750
F811        F  0.90045465  0.34440513  0.97483924    -0.19420
F812        F  0.96740247  0.23375251  0.89383501    -0.19470
F813        F  0.90625016  0.19623182  0.88073304    -0.19800
F814        F  0.92555554  0.20501731  0.93982293    -0.22470
C815        C  0.92927223  0.25618891  0.81147427    -0.05310
C816        C  0.89674523  0.25720055  0.82107025     0.00620
C817        C  0.88476397  0.27627253  0.79711725    -0.07950
C818        C  0.90579004  0.29339577  0.76501804    -0.05330
C819        C  0.93900810  0.29351839  0.75609291     0.00610
C820        C  0.95052285  0.27358254  0.77936927    -0.07860
C821        C  0.98480186  0.27026723  0.77086311     0.62520
H822        H  0.93824860  0.24168960  0.82973074     0.13210
H823        H  0.89648595  0.30815039  0.74723677     0.13220
C824        C  0.85126936  0.28116149  0.80365576     0.62750
F825        F  0.98832016  0.24653117  0.79532387    -0.22420
F826        F  0.01714591  0.30526327  0.77363662    -0.19750
F827        F  0.98179136  0.25575416  0.73540753    -0.19420
F828        F  0.86313642  0.31912027  0.80388458    -0.19470
F829        F  0.83342296  0.26654562  0.83666536    -0.19800
F830        F  0.82551585  0.26366451  0.77518037    -0.22470
C831        C  0.84503915  0.17510707  0.80027284    -0.05310
C832        C  0.82527210  0.18580907  0.82472933     0.00620
C833        C  0.78683891  0.17316241  0.81682094    -0.07950
C834        C  0.77050856  0.15171175  0.78449194    -0.05330
C835        C  0.79066278  0.14232344  0.75967189     0.00610
C836        C  0.82866783  0.15416353  0.76750544    -0.07860
C837        C  0.85203318  0.14536290  0.74125212     0.62520
H838        H  0.87334838  0.18243317  0.80762956     0.13210
H839        H  0.74100795  0.14119645  0.77875302     0.13220
C840        C  0.76073175  0.17786566  0.84313967     0.62750
F841        F  0.88940862  0.16308620  0.75213006    -0.22420
F842        F  0.85073698  0.15745963  0.70583851    -0.19750
F843        F  0.83807732  0.10701063  0.74047754    -0.19420
F844        F  0.77881253  0.21079461  0.86299939    -0.19470
F845        F  0.74525632  0.14821769  0.86764737    -0.19800
F846        F  0.73209782  0.17840751  0.82378759    -0.22470
C847        C  0.39940962  0.32487389  0.39411108    -0.05310
C848        C  0.36161662  0.31084463  0.38524269     0.00620
C849        C  0.33389637  0.27529195  0.39914049    -0.07950
C850        C  0.34552740  0.25480731  0.42100655    -0.05330
C851        C  0.38339142  0.26992160  0.43175059     0.00610
C852        C  0.41095793  0.30548304  0.41712921    -0.07860
C853        C  0.45301116  0.32480900  0.42370515     0.62520
H854        H  0.42048993  0.35208238  0.38334783     0.13210
H855        H  0.32472801  0.22761960  0.43180984     0.13220
C856        C  0.29217890  0.26052617  0.39376827     0.62750
F857        F  0.47145523  0.33373143  0.38981081    -0.22420
F858        F  0.46353479  0.30286996  0.44236017    -0.19750
F859        F  0.46481415  0.35767370  0.44372797    -0.19420
F860        F  0.28286733  0.25269485  0.35660358    -0.19470
F861        F  0.28368347  0.28720143  0.40600953    -0.19800
F862        F  0.27009043  0.22788983  0.41361407    -0.22470
C863        C  0.42591138  0.48232720  0.23830127    -0.05310
C864        C  0.43560547  0.46822836  0.26871835     0.00620
C865        C  0.47264729  0.47518770  0.27200373    -0.07950
C866        C  0.49866284  0.49483802  0.24338891    -0.05330
C867        C  0.48898029  0.50848550  0.21214092     0.00610
C868        C  0.45145755  0.50171787  0.20953068    -0.07860
C869        C  0.43489250  0.51051772  0.17606143     0.62520
H870        H  0.39703158  0.47591305  0.23575437     0.13210
H871        H  0.52581900  0.49703835  0.24397810     0.13220
C872        C  0.48408303  0.46105343  0.30528772     0.62750
F873        F  0.40631068  0.47714757  0.16118234    -0.22420
F874        F  0.46035056  0.52935415  0.14813588    -0.19750
F875        F  0.41991231  0.53226052  0.18736654    -0.19420
F876        F  0.46351951  0.42215875  0.30589284    -0.19470
F877        F  0.47712843  0.47493448  0.33755680    -0.19800
F878        F  0.52197860  0.47254799  0.30449245    -0.22470
C879        C  0.05503507  0.52536441  0.23513650    -0.05310
C880        C  0.01704167  0.51195421  0.22632622     0.00620
C881        C  0.98883961  0.48339415  0.24894071    -0.07950
C882        C  0.99936940  0.46493092  0.27444662    -0.05330
C883        C  0.03689547  0.47454008  0.27890490     0.00610
C884        C  0.06558922  0.50625171  0.26009670    -0.07860
C885        C  0.10677754  0.51803519  0.26399485     0.62520
H886        H  0.07653618  0.54958614  0.22049581     0.13210
H887        H  0.97769735  0.44174519  0.29036481     0.13220
C888        C  0.94767407  0.47183830  0.24894218     0.62750
F889        F  0.12972418  0.54811516  0.24133539    -0.22420
F890        F  0.11164361  0.48832366  0.25419136    -0.19750
F891        F  0.11829829  0.52865351  0.30034629    -0.19420
F892        F  0.93938831  0.49140283  0.22366865    -0.19470
F893        F  0.93819805  0.47858075  0.28389844    -0.19800
F894        F  0.92577721  0.43374171  0.24129765    -0.22470
C895        C  0.94549509  0.27678330  0.39160921    -0.05310
C896        C  0.94968257  0.31187298  0.38401297     0.00620
C897        C  0.92134199  0.31938358  0.39598390    -0.07950
C898        C  0.89137380  0.29231715  0.41774917    -0.05330
C899        C  0.89040218  0.25959616  0.42990205     0.00610
C900        C  0.91588003  0.25005224  0.41347976    -0.07860
C901        C  0.91217705  0.21169003  0.41590630     0.62520
H902        H  0.96620569  0.27035012  0.38097557     0.13210
H903        H  0.87000863  0.29792414  0.42790396     0.13220
C904        C  0.92315703  0.35611183  0.38705531     0.62750
F905        F  0.93931637  0.21358299  0.43967066    -0.22420
F906        F  0.91753693  0.20074897  0.38102977    -0.19750
F907        F  0.87700950  0.18415581  0.42751791    -0.19420
F908        F  0.92918564  0.36327867  0.34940729    -0.19470
F909        F  0.95212131  0.38525871  0.40689892    -0.19800
F910        F  0.89007268  0.35505076  0.39637436    -0.22470
C911        C  0.13313645  0.41655305  0.60109199    -0.05310
C912        C  0.10471100  0.38001288  0.61041498     0.00620
C913        C  0.10688560  0.34891085  0.59690254    -0.07950
C914        C  0.13559156  0.35560592  0.57163267    -0.05330
C915        C  0.16310023  0.39205097  0.56057187     0.00610
C916        C  0.16300417  0.42323678  0.57736529    -0.07860
C917        C  0.19293567  0.46394805  0.57127578     0.62520
H918        H  0.13177120  0.44032178  0.61219670     0.13210
H919        H  0.13627214  0.33196839  0.55979206     0.13220
C920        C  0.07799460  0.30866582  0.60727016     0.62750
F921        F  0.20590283  0.48168471  0.60534382    -0.22420
F922        F  0.17760593  0.48184578  0.55208962    -0.19750
F923        F  0.22344363  0.46776260  0.55194097    -0.19420
F924        F  0.04232222  0.30064373  0.59721119    -0.19470
F925        F  0.07922336  0.30409803  0.64517673    -0.19800
F926        F  0.08475956  0.28276270  0.58965733    -0.22470
C927        C  0.30317487  0.41867050  0.58621168    -0.05310
C928        C  0.28652355  0.38965461  0.61234636     0.00620
C929        C  0.24677529  0.37015564  0.61644168    -0.07950
C930        C  0.22535112  0.37667711  0.59035086    -0.05330
C931        C  0.24202091  0.40220945  0.56082216     0.00610
C932        C  0.28183033  0.42644799  0.56161063    -0.07860
C933        C  0.30365059  0.46019419  0.53657797     0.62520
H934        H  0.33360844  0.43533587  0.58433598     0.13210
H935        H  0.19548377  0.35796982  0.59038767     0.13220
C936        C  0.22646271  0.34091996  0.64642717     0.62750
F937        F  0.33150669  0.48997193  0.55688975    -0.22420
F938        F  0.28123109  0.47251288  0.52164385    -0.19750
F939        F  0.32046548  0.45115195  0.50827494    -0.19420
F940        F  0.24041097  0.35678080  0.68099587    -0.19470
F941        F  0.23142534  0.31059486  0.64060342    -0.19800
F942        F  0.18812595  0.32752903  0.64658969    -0.22470
C943        C  0.24605657  0.42234116  0.46273170    -0.05310
C944        C  0.23642278  0.39431449  0.48979606     0.00620
C945        C  0.24674890  0.36661289  0.48324223    -0.07950
C946        C  0.26735474  0.36933026  0.45117135    -0.05330
C947        C  0.27717390  0.39757275  0.42490673     0.00610
C948        C  0.26607914  0.42436918  0.43028851    -0.07860
C949        C  0.27510294  0.45473794  0.40183971     0.62520
H950        H  0.23964460  0.44415339  0.46798443     0.13210
H951        H  0.27588956  0.34876580  0.44640732     0.13220
C952        C  0.23752696  0.33343616  0.50815236     0.62750
F953        F  0.25871694  0.47583098  0.41082596    -0.22420
F954        F  0.26177622  0.43843470  0.36728213    -0.19750
F955        F  0.31362978  0.47883901  0.39998005    -0.19420
F956        F  0.22261292  0.30087536  0.48683824    -0.19470
F957        F  0.21166917  0.32715617  0.53539291    -0.19800
F958        F  0.27026400  0.33937209  0.52480541    -0.22470
C959        C  0.17166119  0.42976810  0.47791757    -0.05310
C960        C  0.16542023  0.39489654  0.49056377     0.00620
C961        C  0.13859799  0.36169261  0.47143550    -0.07950
C962        C  0.11798838  0.36473671  0.44214937    -0.05330
C963        C  0.12473833  0.39958825  0.42915670     0.00610
C964        C  0.15295585  0.43295871  0.44673953    -0.07860
C965        C  0.16424069  0.47179185  0.43241717     0.62520
H966        H  0.19216346  0.45495810  0.49226733     0.13210
H967        H  0.09649703  0.33912023  0.42874098     0.13220
C968        C  0.12987427  0.32226387  0.48015383     0.62750
F969        F  0.19543564  0.49992480  0.45090368    -0.22420
F970        F  0.13495093  0.47849513  0.43737944    -0.19750
F971        F  0.17319292  0.47412108  0.39505838    -0.19420
F972        F  0.09505820  0.30267446  0.49718359    -0.19470
F973        F  0.15641791  0.32193340  0.50262426    -0.19800
F974        F  0.12885796  0.30371618  0.44755611    -0.22470
C975        C  0.24190906  0.41490177  0.07370495    -0.05310
C976        C  0.22666570  0.38485750  0.09891040     0.00620
C977        C  0.22978169  0.35302314  0.09061476    -0.07950
C978        C  0.25559541  0.35621655  0.06345411    -0.05330
C979        C  0.27618630  0.38914599  0.04249890     0.00610
C980        C  0.26660312  0.41759196  0.04518645    -0.07860
C981        C  0.28417443  0.45194838  0.02038871     0.62520
H982        H  0.23779600  0.43829014  0.07888201     0.13210
H983        H  0.26079838  0.33319039  0.05970237     0.13220
C984        C  0.20752969  0.31583983  0.11058012     0.62750
F985        F  0.26867936  0.47439088  0.02644949    -0.22420
F986        F  0.27810171  0.44067961  0.98349761    -0.19750
F987        F  0.32241792  0.47353043  0.02728975    -0.19420
F988        F  0.19491885  0.28647715  0.08520627    -0.19470
F989        F  0.17618716  0.31251950  0.12817682    -0.19800
F990        F  0.23033623  0.31242643  0.13637796    -0.22470
C991        C  0.21219015  0.35805422  0.19651659    -0.05310
C992        C  0.23365804  0.38543179  0.16958618     0.00620
C993        C  0.27345695  0.40831331  0.17479716    -0.07950
C994        C  0.28941562  0.40367936  0.20716904    -0.05330
C995        C  0.26776415  0.37730431  0.23411405     0.00610
C996        C  0.22865081  0.35375877  0.22893033    -0.07860
C997        C  0.20453851  0.32528484  0.25810861     0.62520
H998        H  0.18220972  0.34020698  0.19221168     0.13210
H999        H  0.31950823  0.42080476  0.21184092     0.13220
C1000       C  0.30015454  0.43747815  0.14702132     0.62750
F1001       F  0.16678739  0.30608373  0.24848004    -0.22420
F1002       F  0.20841117  0.34346592  0.29170365    -0.19750
F1003       F  0.21588007  0.29929114  0.26230925    -0.19420
F1004       F  0.28585861  0.45868669  0.13325580    -0.19470
F1005       F  0.30692275  0.41953829  0.11816173    -0.19800
F1006       F  0.33445049  0.46253490  0.16315441    -0.22470
C1007       C  0.14537777  0.37143843  0.08421703    -0.05310
C1008       C  0.16721502  0.40313801  0.10699311     0.00620
C1009       C  0.16891737  0.43753095  0.09874362    -0.07950
C1010       C  0.14702902  0.43823275  0.06937571    -0.05330
C1011       C  0.12271331  0.40579992  0.04897319     0.00610
C1012       C  0.12285631  0.37210681  0.05527871    -0.07860
C1013       C  0.09980407  0.33726839  0.03140961     0.62520
H1014       H  0.14475675  0.34554690  0.09044926     0.13210
H1015       H  0.14694687  0.46385805  0.06357471     0.13220
C1016       C  0.19307339  0.47341449  0.12085317     0.62750
F1017       F  0.10942223  0.31021317  0.03777722    -0.22420
F1018       F  0.10608475  0.34678794  0.99422223    -0.19750
F1019       F  0.06193717  0.32162569  0.03915021    -0.19420
F1020       F  0.23012355  0.48228198  0.12032516    -0.19470
F1021       F  0.18031321  0.46881998  0.15698385    -0.19800
F1022       F  0.19196182  0.50377468  0.10635485    -0.22470
C1023       C  0.12758330  0.36511567  0.17778275    -0.05310
C1024       C  0.16573725  0.39396101  0.17686323     0.00620
C1025       C  0.18157497  0.41643515  0.20945533    -0.07950
C1026       C  0.15842065  0.40965594  0.24053084    -0.05330
C1027       C  0.11966952  0.38312450  0.24016434     0.00610
C1028       C  0.10402464  0.35950946  0.20846381    -0.07860
C1029       C  0.06268109  0.32917689  0.20617554     0.62520
H1030       H  0.11595127  0.34712755  0.15358313     0.13210
H1031       H  0.17077022  0.42701115  0.26512966     0.13220
C1032       C  0.22159613  0.44906014  0.21359130     0.62750
F1033       F  0.05377603  0.30971544  0.17268871    -0.22420
F1034       F  0.04055348  0.34531750  0.20947118    -0.19750
F1035       F  0.05404541  0.30340168  0.23429248    -0.19420
F1036       F  0.24145643  0.45808206  0.18105283    -0.19470
F1037       F  0.24022813  0.44023612  0.23982974    -0.19800
F1038       F  0.22113652  0.48074776  0.22558473    -0.22470
C1039       C  0.11992898  0.83857223  0.61277238    -0.05310
C1040       C  0.10741465  0.79997393  0.61138868     0.00620
C1041       C  0.12808626  0.78771867  0.59001374    -0.07950
C1042       C  0.15536912  0.81309366  0.56543601    -0.05330
C1043       C  0.16397156  0.85057247  0.56212286     0.00610
C1044       C  0.14791052  0.86443942  0.58843297    -0.07860
C1045       C  0.15744391  0.90503473  0.59135991     0.62520
H1046       H  0.10587352  0.84820597  0.63141123     0.13210
H1047       H  0.16891041  0.80293590  0.54678956     0.13220
C1048       C  0.12118314  0.74791565  0.59178799     0.62750
F1049       F  0.12575531  0.90682029  0.60035944    -0.22420
F1050       F  0.17109578  0.92416771  0.55870867    -0.19750
F1051       F  0.18398520  0.92305339  0.61905027    -0.19420
F1052       F  0.08947269  0.72370316  0.57136757    -0.19470
F1053       F  0.11657566  0.73612806  0.62832295    -0.19800
F1054       F  0.15126494  0.74592573  0.57736742    -0.22470
C1055       C  0.05225635  0.63262924  0.70958118    -0.05310
C1056       C  0.03701735  0.65383385  0.72335138     0.00620
C1057       C  0.03249662  0.65533155  0.76200614    -0.07950
C1058       C  0.03402178  0.62852501  0.78393571    -0.05330
C1059       C  0.05231966  0.60913158  0.77200634     0.00610
C1060       C  0.06497287  0.61475387  0.73409367    -0.07860
C1061       C  0.09490271  0.60763377  0.71856145     0.62520
H1062       H  0.05849093  0.63397282  0.68013515     0.13210
H1063       H  0.02346091  0.62540907  0.81191881     0.13220
C1064       C  0.03075496  0.68751901  0.78092194     0.62750
F1065       F  0.12095613  0.63876234  0.69875860    -0.22420
F1066       F  0.07861388  0.57704723  0.69458391    -0.19750
F1067       F  0.11460471  0.60206291  0.74601841    -0.19420
F1068       F  0.00253183  0.69185037  0.76625575    -0.19470
F1069       F  0.06473554  0.72048958  0.77567084    -0.19800
F1070       F  0.02479271  0.68219452  0.81884898    -0.22470
C1071       C  0.68377540  0.84041078  0.56930001    -0.05310
C1072       C  0.71355986  0.85611720  0.54340320     0.00620
C1073       C  0.74222919  0.84654518  0.54539463    -0.07950
C1074       C  0.74164910  0.82478553  0.57527359    -0.05330
C1075       C  0.71188845  0.80900878  0.60045775     0.00610
C1076       C  0.68191376  0.81588750  0.59726652    -0.07860
C1077       C  0.64816774  0.79690423  0.62291452     0.62520
H1078       H  0.66103603  0.84604275  0.56625649     0.13210
H1079       H  0.76319017  0.81733868  0.57773572     0.13220
C1080       C  0.77215467  0.85647914  0.51558710     0.62750
F1081       F  0.62285221  0.80880584  0.61646798    -0.22420
F1082       F  0.65999397  0.80507217  0.65949160    -0.19750
F1083       F  0.62963175  0.75835452  0.61745367    -0.19420
F1084       F  0.79109056  0.89431049  0.50797853    -0.19470
F1085       F  0.75551978  0.83628292  0.48353442    -0.19800
F1086       F  0.79894380  0.84772320  0.52634578    -0.22470
C1087       C  0.60331656  0.61370972  0.71420657    -0.05310
C1088       C  0.61515260  0.65190868  0.71676568     0.00620
C1089       C  0.59672515  0.66346434  0.74231847    -0.07950
C1090       C  0.56926917  0.63641137  0.76612660    -0.05330
C1091       C  0.56177931  0.59906603  0.76795502     0.00610
C1092       C  0.57978886  0.58768933  0.74096950    -0.07860
C1093       C  0.57903664  0.55067944  0.73985860     0.62520
H1094       H  0.61622227  0.60480525  0.69335302     0.13210
H1095       H  0.55571560  0.64526362  0.78625785     0.13220
C1096       C  0.60655636  0.70415624  0.74579623     0.62750
F1097       F  0.61364823  0.55594829  0.72906236    -0.22420
F1098       F  0.55243399  0.52689050  0.71430518    -0.19750
F1099       F  0.57194698  0.53425680  0.77390554    -0.19420
F1100       F  0.60737251  0.71852899  0.71098949    -0.19470
F1101       F  0.64131274  0.72534021  0.76275125    -0.19800
F1102       F  0.58045625  0.70760508  0.76707433    -0.22470
C1103       C  0.90177059  0.68569371  0.42684477    -0.05310
C1104       C  0.89408775  0.71511672  0.42981779     0.00620
C1105       C  0.91046841  0.74446115  0.40302857    -0.07950
C1106       C  0.93696842  0.74497276  0.37763486    -0.05330
C1107       C  0.94793714  0.71781746  0.37827280     0.00610
C1108       C  0.92732652  0.68578921  0.40107469    -0.07860
C1109       C  0.93238187  0.65185693  0.39947786     0.62520
H1110       H  0.88861716  0.66285687  0.44652785     0.13210
H1111       H  0.95129752  0.76856705  0.35888951     0.13220
C1112       C  0.90393961  0.77734895  0.40087735     0.62750
F1113       F  0.90292212  0.62090542  0.41666401    -0.22420
F1114       F  0.96534220  0.65999493  0.41730397    -0.19750
F1115       F  0.93329076  0.64190262  0.36286342    -0.19420
F1116       F  0.88209556  0.77824399  0.42925953    -0.19470
F1117       F  0.88645624  0.77538442  0.36751770    -0.19800
F1118       F  0.93813996  0.81081627  0.40217850    -0.22470
C1119       C  0.88123450  0.68147723  0.52011867    -0.05310
C1120       C  0.89597177  0.71531413  0.50013402     0.00620
C1121       C  0.93022911  0.74714062  0.51261158    -0.07950
C1122       C  0.94758008  0.74389155  0.54476969    -0.05330
C1123       C  0.93301901  0.71016050  0.56447082     0.00610
C1124       C  0.89916235  0.67822030  0.55202449    -0.07860
C1125       C  0.88155933  0.64112994  0.57254358     0.62520
H1126       H  0.85562169  0.65724215  0.51001819     0.13210
H1127       H  0.97375354  0.76783728  0.55438986     0.13220
C1128       C  0.94949110  0.78447481  0.49234157     0.62750
F1129       F  0.84671900  0.61506762  0.55800975    -0.22420
F1130       F  0.87664560  0.64682881  0.60958049    -0.19750
F1131       F  0.90467829  0.62608479  0.56980967    -0.19420
F1132       F  0.92453246  0.79664239  0.48612378    -0.19470
F1133       F  0.96378271  0.78049546  0.45905777    -0.19800
F1134       F  0.97928907  0.81246745  0.51251471    -0.22470
C1135       C  0.80384548  0.73736700  0.44484348    -0.05310
C1136       C  0.81577387  0.71139589  0.43730224     0.00620
C1137       C  0.80404856  0.69104416  0.40281894    -0.07950
C1138       C  0.78208404  0.69842616  0.37792388    -0.05330
C1139       C  0.76850251  0.72230417  0.38754032     0.00610
C1140       C  0.77951215  0.74212401  0.42159587    -0.07860
C1141       C  0.76567269  0.76845119  0.43355227     0.62520
H1142       H  0.81345218  0.75414887  0.46990567     0.13210
H1143       H  0.77338219  0.68349061  0.35154974     0.13220
C1144       C  0.81155926  0.66028868  0.39068713     0.62750
F1145       F  0.78248977  0.78743499  0.46626100    -0.22420
F1146       F  0.72722067  0.74805450  0.43941616    -0.19750
F1147       F  0.77376321  0.79493074  0.40630852    -0.19420
F1148       F  0.82517022  0.64823715  0.41872950    -0.19470
F1149       F  0.83709291  0.67323792  0.36169570    -0.19800
F1150       F  0.77838238  0.62928177  0.37841395    -0.22470
C1151       C  0.83913327  0.73844939  0.52838834    -0.05310
C1152       C  0.82197428  0.70533914  0.50683988     0.00620
C1153       C  0.78692232  0.67487851  0.51892077    -0.07950
C1154       C  0.76891220  0.68000593  0.54975103    -0.05330
C1155       C  0.78516366  0.71387157  0.57016381     0.00610
C1156       C  0.82164558  0.74360674  0.55964682    -0.07860
C1157       C  0.84197532  0.78146891  0.57972673     0.62520
H1158       H  0.86537503  0.76163803  0.51859962     0.13210
H1159       H  0.74151054  0.65698090  0.55786556     0.13220
C1160       C  0.76719863  0.63645118  0.50055764     0.62750
F1161       F  0.87702219  0.80557218  0.56453689    -0.22420
F1162       F  0.84751468  0.77638313  0.61661200    -0.19750
F1163       F  0.82103729  0.79893294  0.57725828    -0.19420
F1164       F  0.75413507  0.60882476  0.52745142    -0.19470
F1165       F  0.79083726  0.63102898  0.47782932    -0.19800
F1166       F  0.73698981  0.63212258  0.48000816    -0.22470
C1167       C  0.93004501  0.74904079  0.89731242    -0.05310
C1168       C  0.89402598  0.71689518  0.89241674     0.00620
C1169       C  0.88380590  0.68521026  0.91569056    -0.07950
C1170       C  0.91062756  0.68669450  0.94070730    -0.05330
C1171       C  0.94787452  0.71659002  0.94134256     0.00610
C1172       C  0.95769015  0.74906737  0.92012043    -0.07860
C1173       C  0.99737976  0.78301888  0.91984028     0.62520
H1174       H  0.93792535  0.77306467  0.87980371     0.13210
H1175       H  0.90342743  0.66275367  0.95816759     0.13220
C1176       C  0.84628209  0.64872609  0.91365679     0.62750
F1177       F  0.99900733  0.81348228  0.90221053    -0.22420
F1178       F  0.02116941  0.77414090  0.90110755    -0.19750
F1179       F  0.01005093  0.79390983  0.95586456    -0.19420
F1180       F  0.83876208  0.63582478  0.87761671    -0.19470
F1181       F  0.81835919  0.65423332  0.92746826    -0.19800
F1182       F  0.84573965  0.62048140  0.93460151    -0.22470
C1183       C  0.90519549  0.68995443  0.81604615    -0.05310
C1184       C  0.89855209  0.71951090  0.82259521     0.00620
C1185       C  0.91505240  0.75089299  0.79839890    -0.07950
C1186       C  0.93387485  0.74911479  0.76645253    -0.05330
C1187       C  0.93677849  0.71741983  0.75789662     0.00610
C1188       C  0.92167905  0.68678732  0.78324506    -0.07860
C1189       C  0.92072002  0.64958542  0.77866135     0.62520
H1190       H  0.89480447  0.66726463  0.83593301     0.13210
H1191       H  0.94636877  0.77289625  0.74772758     0.13220
C1192       C  0.91562246  0.78747211  0.80525004     0.62750
F1193       F  0.88368875  0.62039504  0.78017393    -0.22420
F1194       F  0.94013738  0.64554514  0.80781898    -0.19750
F1195       F  0.93574030  0.64563774  0.74595103    -0.19420
F1196       F  0.89956137  0.78838136  0.83863607    -0.19470
F1197       F  0.89666667  0.79310577  0.77675508    -0.19800
F1198       F  0.95256045  0.81695772  0.80553200    -0.22470
C1199       C  0.83083766  0.73909495  0.91016833    -0.05310
C1200       C  0.81613975  0.70835633  0.88509950     0.00620
C1201       C  0.77794834  0.67880843  0.88918253    -0.07950
C1202       C  0.75717491  0.68031901  0.91922525    -0.05330
C1203       C  0.77077722  0.71194955  0.94209465     0.00610
C1204       C  0.80811878  0.74205869  0.93783884    -0.07860
C1205       C  0.82346473  0.77693932  0.96218051     0.62520
H1206       H  0.85944965  0.76199132  0.90620922     0.13210
H1207       H  0.72851075  0.65784136  0.92339423     0.13220
C1208       C  0.75794010  0.64596790  0.86208752     0.62750
F1209       F  0.86122937  0.80191451  0.95535716    -0.22420
F1210       F  0.81949955  0.76679906  0.99918569    -0.19750
F1211       F  0.80384954  0.79520746  0.95548537    -0.19420
F1212       F  0.72386181  0.61788362  0.87579547    -0.19470
F1213       F  0.77895705  0.62949152  0.85543453    -0.19800
F1214       F  0.75099822  0.65825284  0.82915031    -0.22470
C1215       C  0.81956561  0.74759480  0.81518703    -0.05310
C1216       C  0.82597913  0.71713768  0.81566094     0.00620
C1217       C  0.81674646  0.69407724  0.78312447    -0.07950
C1218       C  0.80128567  0.70229364  0.75253405    -0.05330
C1219       C  0.79222844  0.73071847  0.75338897     0.00610
C1220       C  0.80283891  0.75487639  0.78484071    -0.07860
C1221       C  0.79591875  0.78759283  0.78715933     0.62520
H1222       H  0.82712821  0.76548955  0.83958593     0.13210
H1223       H  0.79412291  0.68445370  0.72801504     0.13220
C1224       C  0.81901658  0.65877912  0.77861481     0.62750
F1225       F  0.80864217  0.80731641  0.82035806    -0.22420
F1226       F  0.75775543  0.77439830  0.78452898    -0.19750
F1227       F  0.81478447  0.81248590  0.75862791    -0.19420
F1228       F  0.83003455  0.64878090  0.81015347    -0.19470
F1229       F  0.84407693  0.66406773  0.75043788    -0.19800
F1230       F  0.78392547  0.62891618  0.76890602    -0.22470
C1231       C  0.68421198  0.92962402  0.10401763    -0.05310
C1232       C  0.72152833  0.93692715  0.10361986     0.00620
C1233       C  0.74465562  0.95621398  0.07244283    -0.07950
C1234       C  0.73134893  0.97213994  0.04658565    -0.05330
C1235       C  0.69506130  0.96676413  0.04887263     0.00610
C1236       C  0.67021223  0.94322123  0.07661777    -0.07860
C1237       C  0.62949122  0.93361266  0.07806278     0.62520
H1238       H  0.66576087  0.91285540  0.12627055     0.13210
H1239       H  0.74975146  0.98943599  0.02439097     0.13220
C1240       C  0.78298155  0.96133377  0.06408252     0.62750
F1241       F  0.61010925  0.91008881  0.10739517    -0.22420
F1242       F  0.61142140  0.91537744  0.04551080    -0.19750
F1243       F  0.62795771  0.96612212  0.08212947    -0.19420
F1244       F  0.79448948  0.94496503  0.08985180    -0.19470
F1245       F  0.80955844  0.99933908  0.06265058    -0.19800
F1246       F  0.78172286  0.94528610  0.02981312    -0.22470
C1247       C  0.82119314  0.14633164  0.89253810    -0.05310
C1248       C  0.82871119  0.18364228  0.89540498     0.00620
C1249       C  0.81206621  0.19247247  0.92589591    -0.07950
C1250       C  0.78421943  0.16267661  0.94712035    -0.05330
C1251       C  0.77272325  0.12493227  0.93998267     0.00610
C1252       C  0.79324650  0.11670386  0.91371305    -0.07860
C1253       C  0.78510201  0.07693464  0.90653038     0.62520
H1254       H  0.83506247  0.13976517  0.87068323     0.13210
H1255       H  0.77009885  0.16866552  0.96913919     0.13220
C1256       C  0.82379122  0.23208044  0.93869603     0.62750
F1257       F  0.81256298  0.07656755  0.88464019    -0.22420
F1258       F  0.75104769  0.05625263  0.88820865    -0.19750
F1259       F  0.78394606  0.05987768  0.93983504    -0.19420
F1260       F  0.82471741  0.25386865  0.90964782    -0.19470
F1261       F  0.85860641  0.24784267  0.95555666    -0.19800
F1262       F  0.79925541  0.23251065  0.96476480    -0.22470
C1263       C  0.31990117  0.13758843  0.88887787    -0.05310
C1264       C  0.34761159  0.17583629  0.88728185     0.00620
C1265       C  0.37857203  0.19019726  0.91269520    -0.07950
C1266       C  0.38233216  0.16464130  0.93522570    -0.05330
C1267       C  0.35631833  0.12581029  0.93412518     0.00610
C1268       C  0.32332456  0.11227581  0.91206450    -0.07860
C1269       C  0.29176623  0.07135600  0.91227948     0.62520
H1270       H  0.29614429  0.12718036  0.87006416     0.13210
H1271       H  0.40672472  0.17525857  0.95325039     0.13220
C1272       C  0.40792203  0.23159055  0.91866102     0.62750
F1273       F  0.25968615  0.06645912  0.89486772    -0.22420
F1274       F  0.28219842  0.05911992  0.94849737    -0.19750
F1275       F  0.30304830  0.04932212  0.89372838    -0.19420
F1276       F  0.40770100  0.24076753  0.95558426    -0.19470
F1277       F  0.40143500  0.25541010  0.89754226    -0.19800
F1278       F  0.44358506  0.23817602  0.91091114    -0.22470
C1279       C  0.30024688  0.95520614  0.07754097    -0.05310
C1280       C  0.28792916  0.96793165  0.04820508     0.00620
C1281       C  0.24959892  0.95671089  0.04508879    -0.07950
C1282       C  0.22468594  0.93398029  0.07320912    -0.05330
C1283       C  0.23767951  0.92368906  0.10465055     0.00610
C1284       C  0.27610170  0.93320082  0.10592241    -0.07860
C1285       C  0.29398543  0.92244973  0.13666127     0.62520
H1286       H  0.32973258  0.96372729  0.07885077     0.13210
H1287       H  0.19551850  0.92662398  0.07225376     0.13220
C1288       C  0.23573824  0.96974892  0.01285687     0.62750
F1289       F  0.31884449  0.91281980  0.12152540    -0.22420
F1290       F  0.26824649  0.89202291  0.15689788    -0.19750
F1291       F  0.31369253  0.95286802  0.16035191    -0.19420
F1292       F  0.24467000  0.95893457  0.97971899    -0.19470
F1293       F  0.25281962  0.00852694  0.01389175    -0.19800
F1294       F  0.19712305  0.95451527  0.01400291    -0.22470
C1295       C  0.57015278  0.03250351  0.21439808    -0.05310
C1296       C  0.57272805  0.06784053  0.21718502     0.00620
C1297       C  0.58885282  0.08983640  0.25012054    -0.07950
C1298       C  0.60527334  0.07730770  0.27628562    -0.05330
C1299       C  0.60565371  0.04389712  0.27114636     0.00610
C1300       C  0.58662307  0.02030026  0.24057473    -0.07860
C1301       C  0.58568451  0.98339576  0.23457311     0.62520
H1302       H  0.55615250  0.01484319  0.19046436     0.13210
H1303       H  0.61964164  0.09478965  0.30032524     0.13220
C1304       C  0.59108446  0.12678510  0.25960870     0.62750
F1305       F  0.56550018  0.96448164  0.20306565    -0.22420
F1306       F  0.56890884  0.96026068  0.26478469    -0.19750
F1307       F  0.62197690  0.99023230  0.23059801    -0.19420
F1308       F  0.56983411  0.12201481  0.29109635    -0.19470
F1309       F  0.57835093  0.13999658  0.23174334    -0.19800
F1310       F  0.62810794  0.15403111  0.26696657    -0.22470
C1311       C  0.49235439  0.04495773  0.23948147    -0.05310
C1312       C  0.50581990  0.07810006  0.21850622     0.00620
C1313       C  0.49147828  0.10219799  0.22676781    -0.07950
C1314       C  0.46309142  0.09113317  0.25352796    -0.05330
C1315       C  0.44863567  0.05747171  0.27342684     0.00610
C1316       C  0.46477853  0.03462378  0.26745902    -0.07860
C1317       C  0.45204089  0.99860749  0.28891970     0.62520
H1318       H  0.50132353  0.02542328  0.23185312     0.13210
H1319       H  0.45114809  0.10888910  0.25806973     0.13220
C1320       C  0.50238140  0.13831020  0.20624485     0.62750
F1321       F  0.47260989  0.98175660  0.27951044    -0.22420
F1322       F  0.41455015  0.97312819  0.28142207    -0.19750
F1323       F  0.45684517  0.00655857  0.32660687    -0.19420
F1324       F  0.53663321  0.15320824  0.18885994    -0.19470
F1325       F  0.50500565  0.16541980  0.23096359    -0.19800
F1326       F  0.47507618  0.13130464  0.18005753    -0.22470
C1327       C  0.49617836  0.09862939  0.08718962    -0.05310
C1328       C  0.45907602  0.06812418  0.08613989     0.00620
C1329       C  0.44557631  0.04265580  0.11621412    -0.07950
C1330       C  0.46984616  0.04861893  0.14602272    -0.05330
C1331       C  0.50686747  0.07960309  0.14797185     0.00610
C1332       C  0.52050349  0.10513699  0.11746474    -0.07860
C1333       C  0.55949358  0.13974840  0.11444618     0.62520
H1334       H  0.50637579  0.11781347  0.06388852     0.13210
H1335       H  0.45981201  0.02855303  0.16847815     0.13220
C1336       C  0.40525625  0.00991503  0.11781775     0.62750
F1337       F  0.55624550  0.17092332  0.10785083    -0.22420
F1338       F  0.57826451  0.13505574  0.08488473    -0.19750
F1339       F  0.58102574  0.14709054  0.14587326    -0.19420
F1340       F  0.39973507  0.98343512  0.09097474    -0.19470
F1341       F  0.38071244  0.02286835  0.11201640    -0.19800
F1342       F  0.39668839  0.99220555  0.15196338    -0.22470
C1343       C  0.55491282  0.04617293  0.12325154    -0.05310
C1344       C  0.57739105  0.07639663  0.14746116     0.00620
C1345       C  0.61676146  0.09841168  0.14012409    -0.07950
C1346       C  0.63157342  0.08949773  0.10920118    -0.05330
C1347       C  0.60911198  0.05984155  0.08476998     0.00610
C1348       C  0.56979572  0.03760513  0.09185643    -0.07860
C1349       C  0.54337981  0.00462423  0.06709737     0.62520
H1350       H  0.52555504  0.02797227  0.13022044     0.13210
H1351       H  0.66165760  0.10611794  0.10429796     0.13220
C1352       C  0.64524849  0.13141964  0.16350025     0.62750
F1353       F  0.50610865  0.98909171  0.07766990    -0.22420
F1354       F  0.55234210  0.97667191  0.06912876    -0.19750
F1355       F  0.54638138  0.01645611  0.03073461    -0.19420
F1356       F  0.66839876  0.12146669  0.18151728    -0.19470
F1357       F  0.62909876  0.14319798  0.18949289    -0.19800
F1358       F  0.66709140  0.16177795  0.14072109    -0.22470
C1359       C  0.60803188  0.07427231  0.71361460    -0.05310
C1360       C  0.61764970  0.04639202  0.71222611     0.00620
C1361       C  0.59555407  0.01269349  0.73218913    -0.07950
C1362       C  0.56747554  0.01025475  0.75611719    -0.05330
C1363       C  0.56114377  0.04038821  0.76178680     0.00610
C1364       C  0.58105224  0.07284654  0.73859308    -0.07860
C1365       C  0.57550587  0.10649242  0.73815314     0.62520
H1366       H  0.62375559  0.09879112  0.69630541     0.13210
H1367       H  0.55223622  0.98556511  0.77335767     0.13220
C1368       C  0.60197274  0.97969034  0.72952121     0.62750
F1369       F  0.60707432  0.13840608  0.72484889    -0.22420
F1370       F  0.56908853  0.11557604  0.77294008    -0.19750
F1371       F  0.54581373  0.09876047  0.71494073    -0.19420
F1372       F  0.63417055  0.98785415  0.74888671    -0.19470
F1373       F  0.60562223  0.97223709  0.69269047    -0.19800
F1374       F  0.57217456  0.94732515  0.74440885    -0.22470
C1375       C  0.48960147  0.08269171  0.77378744    -0.05310
C1376       C  0.49260254  0.05040279  0.76903307     0.00620
C1377       C  0.47511195  0.02679003  0.73727869    -0.07950
C1378       C  0.45659321  0.03734197  0.71159518    -0.05330
C1379       C  0.45324423  0.06896831  0.71734298     0.00610
C1380       C  0.46995018  0.09217218  0.74875299    -0.07860
C1381       C  0.46514380  0.12562636  0.75678274     0.62520
H1382       H  0.50217761  0.10018356  0.79820510     0.13210
H1383       H  0.44265501  0.01943447  0.68766753     0.13220
C1384       C  0.47254723  0.98953505  0.72899018     0.62750
F1385       F  0.42733185  0.11326450  0.76133853    -0.22420
F1386       F  0.47917608  0.15055245  0.72750069    -0.19750
F1387       F  0.48388666  0.14478428  0.78879156    -0.19420
F1388       F  0.43523829  0.96201692  0.72349469    -0.19470
F1389       F  0.48615175  0.97748653  0.75690648    -0.19800
F1390       F  0.49248153  0.99281291  0.69688187    -0.22470
C1391       C  0.59877053  0.06069257  0.83579097    -0.05310
C1392       C  0.56033606  0.03369141  0.83190380     0.00620
C1393       C  0.54351558  0.00430257  0.85880421    -0.07950
C1394       C  0.56479254  0.00598455  0.89008334    -0.05330
C1395       C  0.60238665  0.03441188  0.89451842     0.00610
C1396       C  0.62007084  0.06161505  0.86643786    -0.07860
C1397       C  0.66153029  0.09125463  0.86822029     0.62520
H1398       H  0.61192372  0.08225192  0.81482111     0.13210
H1399       H  0.55191312  0.98453593  0.91127079     0.13220
C1400       C  0.50467368  0.96957163  0.85618712     0.62750
F1401       F  0.67389802  0.11043697  0.83505201    -0.22420
F1402       F  0.68251582  0.07443519  0.87510768    -0.19750
F1403       F  0.66779128  0.11706563  0.89609319    -0.19420
F1404       F  0.50767928  0.93782279  0.85909112    -0.19470
F1405       F  0.48677009  0.96675327  0.82330405    -0.19800
F1406       F  0.48269386  0.96978712  0.88517454    -0.22470
C1407       C  0.45251422  0.01207381  0.83920823    -0.05310
C1408       C  0.49120983  0.03929645  0.83778907     0.00620
C1409       C  0.50757490  0.06453412  0.86859016    -0.07950
C1410       C  0.48505329  0.05998292  0.89954147    -0.05330
C1411       C  0.44619368  0.03444927  0.89989023     0.00610
C1412       C  0.42947525  0.00941573  0.86935574    -0.07860
C1413       C  0.38753678  0.98098369  0.86757168     0.62520
H1414       H  0.44010646  0.99344660  0.81547773     0.13210
H1415       H  0.49788400  0.07882421  0.92312751     0.13220
C1416       C  0.54700043  0.09860694  0.87086522     0.62750
F1417       F  0.37740838  0.96049545  0.83467114    -0.22420
F1418       F  0.36747164  0.99939663  0.86995370    -0.19750
F1419       F  0.37750663  0.95582386  0.89651128    -0.19420
F1420       F  0.56685844  0.10592532  0.83856659    -0.19470
F1421       F  0.56677642  0.09335515  0.89879202    -0.19800
F1422       F  0.54487903  0.13022635  0.87936368    -0.22470
loop_ 
_geom_bond_atom_site_label_1 
_geom_bond_atom_site_label_2 
_geom_bond_distance 
_geom_bond_site_symmetry_2 
_ccdc_geom_bond_type 
C1            C2   1.374       .  D
C1         C1376   1.502       .  S
C1         C1408   1.508       .  S
C2         C1363   1.516       .  S
C2         C1392   1.515       .  S
C3            C4   1.384       .  D
C3         C1296   1.509       .  S
C3         C1344   1.512       .  S
C4         C1312   1.515       .  S
C4         C1331   1.514       .  S
O5            C8   1.266   1_556  A
O5          Cd10   2.453   1_565  S
C6           O15   1.265       .  A
C6           O11   1.265       .  A
C6         C1411   1.486       .  S
O7           C13   1.270       .  A
O7          Cd10   2.493       .  S
C8           O16   1.265   1_565  A
C8         C1280   1.464       .  S
C9           O14   1.269       .  A
C9           O12   1.262       .  A
C9         C1328   1.487       .  S
Cd10         O17   2.433       .  S
Cd10         O16   2.436   1_556  S
Cd10         O15   2.414       .  S
Cd10         O11   2.479       .  S
Cd10         O14   2.514   1_556  S
Cd10         O12   2.442   1_556  S
C13          O17   1.263       .  A
C13        C1267   1.490       .  S
O18          C21   1.269       .  A
O18         Cd23   2.467   1_554  S
C19          O28   1.265       .  A
C19          O24   1.270       .  A
C19        C1251   1.492       .  S
O20          C26   1.269       .  A
O20         Cd23   2.485   1_564  S
C21          O29   1.262       .  A
C21        C1347   1.493       .  S
C22          O27   1.270       .  A
C22          O25   1.262       .  A
C22        C1395   1.477       .  S
Cd23         O30   2.426   1_556  S
Cd23         O29   2.461   1_556  S
Cd23         O28   2.447       .  S
Cd23         O24   2.456       .  S
Cd23         O27   2.494       .  S
Cd23         O25   2.419       .  S
C26          O30   1.263   1_565  A
C26        C1235   1.474       .  S
C31          C32   1.380       .  D
C31        C1168   1.515       .  S
C31        C1184   1.499       .  S
C32        C1200   1.500       .  S
C32        C1216   1.511       .  S
C33          C34   1.388       .  D
C33        C1136   1.523       .  S
C33        C1152   1.517       .  S
C34        C1104   1.507       .  S
C34        C1120   1.517       .  S
O35          C38   1.272       .  A
O35         Cd40   2.505       .  S
C36          O45   1.264       .  A
C36          O41   1.272       .  A
C36        C1088   1.490       .  S
O37          C43   1.269       .  A
O37         Cd40   2.482       .  S
C38          O46   1.261       .  A
C38        C1155   1.498       .  S
C39          O44   1.269       .  A
C39          O42   1.264       .  A
C39        C1075   1.462       .  S
Cd40         O47   2.409       .  S
Cd40         O46   2.419       .  S
Cd40         O45   2.442       .  S
Cd40         O41   2.458       .  S
Cd40         O44   2.445       .  S
Cd40         O42   2.417       .  S
C43          O47   1.266       .  A
C43        C1219   1.490       .  S
O48          C51   1.272       .  A
O48         Cd53   2.485       .  S
C49          O58   1.263       .  A
C49          O54   1.270       .  A
C49        C1187   1.479       .  S
O50          C56   1.272       .  A
O50         Cd53   2.499   1_655  S
C51          O59   1.264       .  A
C51        C1040   1.486       .  S
C52          O57   1.272       .  A
C52          O55   1.262       .  A
C52        C1056   1.476       .  S
Cd53         O60   2.424   1_455  S
Cd53         O59   2.390       .  S
Cd53         O58   2.444   1_455  S
Cd53         O54   2.470   1_455  S
Cd53         O57   2.505       .  S
Cd53         O55   2.404       .  S
C56          O60   1.267       .  A
C56        C1123   1.490       .  S
C61          C62   1.377       .  D
C61         C976   1.503       .  S
C61         C992   1.507       .  S
C62        C1008   1.502       .  S
C62        C1024   1.509       .  S
C63          C64   1.382       .  D
C63         C915   1.500       .  S
C63         C960   1.505       .  S
C64         C931   1.518       .  S
C64         C944   1.510       .  S
O65          C68   1.270   1_455  A
O65         Cd70   2.468       .  S
C66          O75   1.265       .  A
C66          O71   1.268       .  A
C66        C1027   1.493       .  S
O67          C73   1.268       .  A
O67         Cd70   2.487       .  S
C68          O76   1.264   1_655  A
C68         C896   1.484       .  S
C69          O74   1.268       .  A
C69          O72   1.265       .  A
C69         C963   1.489       .  S
Cd70         O77   2.423       .  S
Cd70         O76   2.450       .  S
Cd70         O75   2.421       .  S
Cd70         O71   2.498       .  S
Cd70         O74   2.485       .  S
Cd70         O72   2.425       .  S
C73          O77   1.265       .  A
C73         C883   1.478       .  S
O78          C81   1.269       .  A
O78         Cd83   2.480       .  S
C79          O88   1.266       .  A
C79          O84   1.269       .  A
C79         C864   1.475       .  S
O80          C86   1.268       .  A
O80         Cd83   2.478       .  S
C81          O89   1.263       .  A
C81         C947   1.473       .  S
C82          O87   1.268       .  A
C82          O85   1.263       .  A
C82         C995   1.470       .  S
Cd83         O90   2.425       .  S
Cd83         O89   2.417       .  S
Cd83         O88   2.445       .  S
Cd83         O84   2.492       .  S
Cd83         O87   2.489       .  S
Cd83         O85   2.411       .  S
C86          O90   1.267       .  A
C86         C848   1.482       .  S
C91          C92   1.382       .  D
C91         C832   1.514       .  S
C91        C1248   1.522       .  S
C92         C800   1.487       .  S
C92         C816   1.507       .  S
C93          C94   1.392       .  D
C93         C784   1.521       .  S
C93         C899   1.503       .  S
C94         C752   1.548       .  S
C94         C771   1.508       .  S
O95          C98   1.271       .  A
O95        Cd100   2.477       .  S
C96         O105   1.264       .  A
C96         O101   1.269       .  A
C96         C835   1.483       .  S
O97         C103   1.268       .  A
O97        Cd100   2.483       .  S
C98         O106   1.263       .  A
C98         C739   1.489   1_545  S
C99         O104   1.271       .  A
C99         O102   1.264       .  A
C99        C1360   1.484       .  S
Cd100       O107   2.440       .  S
Cd100       O106   2.427       .  S
Cd100       O105   2.423       .  S
Cd100       O101   2.496       .  S
Cd100       O104   2.460       .  S
Cd100       O102   2.432       .  S
C103        O107   1.264       .  A
C103        C768   1.478       .  S
O108        C111   1.266       .  A
O108       Cd113   2.476   1_655  S
C109        O118   1.265       .  A
C109        O114   1.267       .  A
C109        C912   1.480       .  S
O110        C116   1.267       .  A
O110       Cd113   2.477   1_655  S
C111        O119   1.266       .  A
C111        C819   1.495       .  S
C112        O117   1.269   1_455  A
C112        O115   1.263       .  A
C112        C720   1.483       .  S
Cd113       O120   2.435   1_455  S
Cd113       O119   2.442   1_455  S
Cd113       O118   2.442       .  S
Cd113       O114   2.465       .  S
Cd113       O117   2.502   1_455  S
Cd113       O115   2.410       .  S
C116        O120   1.265       .  A
C116        C787   1.496       .  S
C121        C122   1.388       .  D
C121        C691   1.545       .  S
C121        C867   1.510       .  S
C122        C672   1.516       .  S
C122        C704   1.501       .  S
C123        C124   1.381       .  D
C123        C624   1.503       .  S
C123        C656   1.515       .  S
C124        C640   1.512       .  S
C124       C1091   1.524       .  S
O125        C128   1.269       .  A
O125       Cd130   2.468   1_554  S
C126        O135   1.265       .  A
C126        O131   1.268       .  A
C126       C1203   1.471       .  S
O127        C133   1.270       .  A
O127       Cd130   2.513       .  S
C128        O136   1.263       .  A
C128        C707   1.492       .  S
C129        O134   1.270       .  A
C129        O132   1.265       .  A
C129        C608   1.487       .  S
Cd130       O137   2.428       .  S
Cd130       O136   2.454   1_556  S
Cd130       O135   2.450       .  S
Cd130       O131   2.457       .  S
Cd130       O134   2.485   1_556  S
Cd130       O132   2.401   1_556  S
C133        O137   1.262       .  A
C133        C643   1.484       .  S
O138        C141   1.266       .  A
O138       Cd143   2.510       .  S
C139        O148   1.264       .  A
C139        O144   1.265       .  A
C139        C688   1.478       .  S
O140        C146   1.266       .  A
O140       Cd143   2.487       .  S
C141        O149   1.265       .  A
C141        C595   1.489       .  S
C142        O147   1.265   1_554  A
C142        O145   1.264       .  A
C142        C979   1.486       .  S
Cd143       O150   2.440       .  S
Cd143       O149   2.404       .  S
Cd143       O148   2.457   1_556  S
Cd143       O144   2.469   1_556  S
Cd143       O147   2.481       .  S
Cd143       O145   2.430   1_556  S
C146        O150   1.267       .  A
C146        C659   1.491       .  S
C151        C152   1.384       .  D
C151        C560   1.511       .  S
C151       C1232   1.508       .  S
C152        C579   1.509       .  S
C152        C611   1.511       .  S
C153        C154   1.381       .  D
C153        C528   1.511       .  S
C153        C736   1.519       .  S
C154        C544   1.508       .  S
C154       C1072   1.496       .  S
O155        C158   1.268       .  A
O155       Cd160   2.491       .  S
C156        O165   1.265       .  A
C156        O161   1.268       .  A
C156        C675   1.478       .  S
O157        C163   1.269       .  A
O157       Cd160   2.487       .  S
C158        O166   1.264       .  A
C158        C547   1.491       .  S
C159        O164   1.269       .  A
C159        O162   1.265       .  A
C159       C1139   1.480       .  S
Cd160       O167   2.435       .  S
Cd160       O166   2.410       .  S
Cd160       O165   2.449       .  S
Cd160       O161   2.476       .  S
Cd160       O164   2.505       .  S
Cd160       O162   2.438       .  S
C163        O167   1.262       .  A
C163        C576   1.480       .  S
O168        C171   1.268       .  A
O168       Cd173   2.478       .  S
C169        O178   1.262       .  A
C169        O174   1.270   1_565  A
C169        C563   1.495       .  S
O170        C176   1.270       .  A
O170       Cd173   2.502   1_565  S
C171        O179   1.268       .  A
C171        C755   1.496       .  S
C172        O177   1.269       .  A
C172        O175   1.263       .  A
C172       C1299   1.471       .  S
Cd173       O180   2.405       .  S
Cd173       O179   2.436       .  S
Cd173       O178   2.449   1_545  S
Cd173       O174   2.470       .  S
Cd173       O177   2.489       .  S
Cd173       O175   2.419       .  S
C176        O180   1.264   1_565  A
C176        C531   1.479       .  S
C181        C182   1.382       .  D
C181        C496   1.515       .  S
C181        C723   1.495       .  S
C182        C512   1.511       .  S
C182       C1059   1.531       .  S
O183        C186   1.268       .  A
O183       Cd188   2.467   1_554  S
C184        O193   1.263       .  A
C184        O189   1.268       .  A
C184        C515   1.495       .  S
O185        C191   1.268   1_655  A
O185       Cd188   2.505   1_654  S
C186        O194   1.263       .  A
C186        C464   1.480       .  S
C187        O192   1.269       .  A
C187        O190   1.263   1_655  A
C187       C1171   1.487       .  S
Cd188       O195   2.415   1_556  S
Cd188       O194   2.434   1_556  S
Cd188       O193   2.451       .  S
Cd188       O189   2.473       .  S
Cd188       O192   2.458   1_455  S
Cd188       O190   2.451       .  S
C191        O195   1.262       .  A
C191        C480   1.483       .  S
C196        C197   1.381       .  D
C196        C432   1.510       .  S
C196        C483   1.516       .  S
C197        C451   1.514       .  S
C197        C880   1.505       .  S
O198        C201   1.265       .  A
O198       Cd203   2.485   1_554  S
C199        O208   1.267   1_655  A
C199        O204   1.266       .  A
C199        C803   1.473       .  S
O200        C206   1.267       .  A
O200       Cd203   2.498       .  S
C201        O209   1.262       .  A
C201        C448   1.485       .  S
C202        O207   1.266       .  A
C202        O205   1.263       .  A
C202       C1011   1.477       .  S
Cd203       O210   2.464       .  S
Cd203       O209   2.454   1_556  S
Cd203       O208   2.453       .  S
Cd203       O204   2.442   1_455  S
Cd203       O207   2.462   1_556  S
Cd203       O205   2.454   1_556  S
C206        O210   1.263       .  A
C206        C499   1.480       .  S
C211        C212   1.380       .  D
C211        C403   1.514       .  S
C211       C1283   1.495       .  S
C212        C416   1.503       .  S
C212        C467   1.504       .  S
C213        C214   1.390       .  D
C213        C352   1.502       .  S
C213        C387   1.521       .  S
C214        C371   1.519       .  S
C214       C1043   1.505       .  S
O215        C218   1.267       .  A
O215       Cd220   2.523       .  S
C216        O225   1.266       .  A
C216        O221   1.267       .  A
C216        C368   1.497       .  S
O217        C223   1.269       .  A
O217       Cd220   2.509       .  S
C218        O226   1.264       .  A
C218        C435   1.481       .  S
C219        O224   1.268       .  A
C219        O222   1.262       .  A
C219       C1107   1.498       .  S
Cd220       O227   2.438       .  S
Cd220       O226   2.455       .  S
Cd220       O225   2.438       .  S
Cd220       O221   2.521       .  S
Cd220       O224   2.525   1_455  S
Cd220       O222   2.440   1_455  S
C223        O227   1.264       .  A
C223        C419   1.488       .  S
O228        C231   1.267   1_545  A
O228       Cd233   2.489       .  S
C229        O238   1.265       .  A
C229        O234   1.266       .  A
C229        C339   1.474       .  S
O230        C236   1.271       .  A
O230       Cd233   2.512   1_565  S
C231        O239   1.263       .  A
C231        C400   1.479       .  S
C232        O237   1.267       .  A
C232        O235   1.264       .  A
C232       C1315   1.497       .  S
Cd233       O240   2.405   1_545  S
Cd233       O239   2.419   1_545  S
Cd233       O238   2.451       .  S
Cd233       O234   2.467       .  S
Cd233       O237   2.513       .  S
Cd233       O235   2.424       .  S
C236        O240   1.261       .  A
C236        C384   1.490       .  S
C241        C242   1.400       .  D
C241        C304   1.500       .  S
C241        C592   1.550       .  S
C242        C320   1.541       .  S
C242       C1264   1.497       .  S
C243        C244   1.391       .  D
C243        C275   1.524       .  S
C243        C851   1.497       .  S
C244        C288   1.515       .  S
C244        C336   1.539       .  S
O245        C248   1.268       .  A
O245       Cd250   2.460       .  S
C246        O255   1.265       .  A
C246        O251   1.267       .  A
C246        C355   1.474   1_545  S
O247        C253   1.270       .  A
O247       Cd250   2.512       .  S
C248        O256   1.264       .  A
C248        C323   1.477       .  S
C249        O254   1.267       .  A
C249        O252   1.263       .  A
C249       C1379   1.465       .  S
Cd250       O257   2.408       .  S
Cd250       O256   2.456       .  S
Cd250       O255   2.452       .  S
Cd250       O251   2.487       .  S
Cd250       O254   2.469       .  S
Cd250       O252   2.420       .  S
C253        O257   1.260       .  A
C253        C291   1.497       .  S
O258        C261   1.267       .  A
O258       Cd263   2.482       .  S
C259        O268   1.265       .  A
C259        O264   1.266       .  A
C259        C627   1.480       .  S
O260        C266   1.267       .  A
O260       Cd263   2.482       .  S
C261        O269   1.263       .  A
C261        C272   1.491       .  S
C262        O267   1.267       .  A
C262        O265   1.262       .  A
C262        C307   1.488       .  S
Cd263       O270   2.429       .  S
Cd263       O269   2.455       .  S
Cd263       O268   2.454       .  S
Cd263       O264   2.484       .  S
Cd263       O267   2.511       .  S
Cd263       O265   2.442       .  S
C266        O270   1.266       .  A
C266        C928   1.493       .  S
C271        C272   1.402       .  A
C271        C276   1.409       .  A
C271        H278   1.085       .  S
C272        C273   1.418       .  A
C273        C274   1.406       .  A
C273        C280   1.522       .  S
C274        C275   1.412       .  A
C274        H279   1.078       .  S
C275        C276   1.428       .  A
C276        C277   1.511       .  S
C277        F281   1.385       .  S
C277        F282   1.383       .  S
C277        F283   1.368       .  S
C280        F284   1.383       .  S
C280        F285   1.384       .  S
C280        F286   1.385       .  S
C287        C288   1.403       .  A
C287        C292   1.400       .  A
C287        H294   1.076       .  S
C288        C289   1.420       .  A
C289        C290   1.414       .  A
C289        C296   1.522       .  S
C290        C291   1.410       .  A
C290        H295   1.082       .  S
C291        C292   1.425       .  A
C292        C293   1.525       .  S
C293        F297   1.385       .  S
C293        F298   1.383       .  S
C293        F299   1.383       .  S
C296        F300   1.380       .  S
C296        F301   1.380       .  S
C296        F302   1.384       .  S
C303        C304   1.397       .  A
C303        C308   1.396       .  A
C303        H310   1.082       .  S
C304        C305   1.430       .  A
C305        C306   1.411       .  A
C305        C312   1.526       .  S
C306        C307   1.407       .  A
C306        H311   1.084       .  S
C307        C308   1.419       .  A
C308        C309   1.514       .  S
C309        F313   1.385       .  S
C309        F314   1.384       .  S
C309        F315   1.382       .  S
C312        F316   1.381       .  S
C312        F317   1.381       .  S
C312        F318   1.376       .  S
C319        C320   1.411       .  A
C319        C324   1.409       .  A
C319        H326   1.061       .  S
C320        C321   1.434       .  A
C321        C322   1.411       .  A
C321        C328   1.507       .  S
C322        C323   1.395       .  A
C322        H327   1.083       .  S
C323        C324   1.407       .  A
C324        C325   1.522       .  S
C325        F329   1.381       .  S
C325        F330   1.383       .  S
C325        F331   1.380       .  S
C328        F332   1.378       .  S
C328        F333   1.376       .  S
C328        F334   1.386       .  S
C335        C336   1.419       .  A
C335        C340   1.404       .  A
C335        H342   1.079       .  S
C336        C337   1.440       .  A
C337        C338   1.414       .  A
C337        C344   1.512       .  S
C338        C339   1.394       .  A
C338        H343   1.083       .  S
C339        C340   1.406       .  A
C340        C341   1.520       .  S
C341        F345   1.384       .  S
C341        F346   1.383       .  S
C341        F347   1.383       .  S
C344        F348   1.370       .  S
C344        F349   1.379       .  S
C344        F350   1.385       .  S
C351        C352   1.409       .  A
C351        C356   1.399       .  A
C351        H358   1.083       .  S
C352        C353   1.428       .  A
C353        C354   1.414       .  A
C353        C360   1.516       .  S
C354        C355   1.402       .  A
C354        H359   1.084       .  S
C355        C356   1.408       .  A
C356        C357   1.518   1_565  S
C357        F361   1.384       .  S
C357        F362   1.383       .  S
C357        F363   1.383       .  S
C360        F364   1.384       .  S
C360        F365   1.374       .  S
C360        F366   1.383       .  S
C367        C368   1.401       .  A
C367        C372   1.404       .  A
C367        H374   1.082       .  S
C368        C369   1.421       .  A
C369        C370   1.416       .  A
C369        C376   1.516       .  S
C370        C371   1.409       .  A
C370        H375   1.083       .  S
C371        C372   1.426       .  A
C372        C373   1.521       .  S
C373        F377   1.385       .  S
C373        F378   1.379       .  S
C373        F379   1.377       .  S
C376        F380   1.383       .  S
C376        F381   1.383       .  S
C376        F382   1.385       .  S
C383        C384   1.401       .  A
C383        C388   1.413       .  A
C383        H390   1.083       .  S
C384        C385   1.416       .  A
C385        C386   1.394       .  A
C385        C392   1.514       .  S
C386        C387   1.402       .  A
C386        H391   1.072       .  S
C387        C388   1.431       .  A
C388        C389   1.516       .  S
C389        F393   1.385       .  S
C389        F394   1.379       .  S
C389        F395   1.379       .  S
C392        F396   1.379       .  S
C392        F397   1.381       .  S
C392        F398   1.385       .  S
C399        C400   1.399       .  A
C399        C404   1.409       .  A
C399        H406   1.084   1_565  S
C400        C401   1.411       .  A
C401        C402   1.394       .  A
C401        C408   1.512       .  S
C402        C403   1.405       .  A
C402        H407   1.074       .  S
C403        C404   1.430       .  A
C404        C405   1.518       .  S
C405        F409   1.385   1_565  S
C405        F410   1.378       .  S
C405        F411   1.382   1_565  S
C408        F412   1.379       .  S
C408        F413   1.381       .  S
C408        F414   1.385       .  S
C415        C416   1.401       .  A
C415        C420   1.399       .  A
C415        H422   1.075       .  S
C416        C417   1.424       .  A
C417        C418   1.413       .  A
C417        C424   1.514       .  S
C418        C419   1.404       .  A
C418        H423   1.084       .  S
C419        C420   1.418       .  A
C420        C421   1.515       .  S
C421        F425   1.385       .  S
C421        F426   1.376       .  S
C421        F427   1.383       .  S
C424        F428   1.383       .  S
C424        F429   1.376       .  S
C424        F430   1.383       .  S
C431        C432   1.411       .  A
C431        C436   1.413       .  A
C431        H438   1.076   1_455  S
C432        C433   1.422       .  A
C433        C434   1.401       .  A
C433        C440   1.518       .  S
C434        C435   1.395       .  A
C434        H439   1.075       .  S
C435        C436   1.411       .  A
C436        C437   1.513   1_455  S
C437        F441   1.384       .  S
C437        F442   1.382       .  S
C437        F443   1.383   1_655  S
C440        F444   1.382       .  S
C440        F445   1.381       .  S
C440        F446   1.385       .  S
C447        C448   1.402   1_655  A
C447        C452   1.412       .  A
C447        H454   1.083       .  S
C448        C449   1.416       .  A
C449        C450   1.404       .  A
C449        C456   1.522       .  S
C450        C451   1.410       .  A
C450        H455   1.075       .  S
C451        C452   1.424   1_455  A
C452        C453   1.514       .  S
C453        F457   1.385       .  S
C453        F458   1.378       .  S
C453        F459   1.377       .  S
C456        F460   1.383       .  S
C456        F461   1.382       .  S
C456        F462   1.385       .  S
C463        C464   1.400       .  A
C463        C468   1.408       .  A
C463        H470   1.083       .  S
C464        C465   1.415       .  A
C465        C466   1.403       .  A
C465        C472   1.519       .  S
C466        C467   1.406       .  A
C466        H471   1.079       .  S
C467        C468   1.428       .  A
C468        C469   1.520       .  S
C469        F473   1.385       .  S
C469        F474   1.373       .  S
C469        F475   1.379       .  S
C472        F476   1.382       .  S
C472        F477   1.383       .  S
C472        F478   1.385       .  S
C479        C480   1.401   1_655  A
C479        C484   1.410       .  A
C479        H486   1.084       .  S
C480        C481   1.415       .  A
C481        C482   1.401       .  A
C481        C488   1.520       .  S
C482        C483   1.408       .  A
C482        H487   1.071       .  S
C483        C484   1.426   1_455  A
C484        C485   1.517       .  S
C485        F489   1.385       .  S
C485        F490   1.382       .  S
C485        F491   1.378       .  S
C488        F492   1.382       .  S
C488        F493   1.383       .  S
C488        F494   1.385       .  S
C495        C496   1.407       .  A
C495        C500   1.400       .  A
C495        H502   1.081       .  S
C496        C497   1.426       .  A
C497        C498   1.410       .  A
C497        C504   1.513       .  S
C498        C499   1.401       .  A
C498        H503   1.085       .  S
C499        C500   1.415       .  A
C500        C501   1.517   1_455  S
C501        F505   1.385       .  S
C501        F506   1.382       .  S
C501        F507   1.382       .  S
C504        F508   1.382       .  S
C504        F509   1.374       .  S
C504        F510   1.384       .  S
C511        C512   1.408       .  A
C511        C516   1.407       .  A
C511        H518   1.081       .  S
C512        C513   1.423       .  A
C513        C514   1.404       .  A
C513        C520   1.519       .  S
C514        C515   1.405       .  A
C514        H519   1.084       .  S
C515        C516   1.424       .  A
C516        C517   1.522   1_455  S
C517        F521   1.385       .  S
C517        F522   1.383       .  S
C517        F523   1.382       .  S
C520        F524   1.384       .  S
C520        F525   1.375       .  S
C520        F526   1.383       .  S
C527        C528   1.412       .  A
C527        C532   1.411       .  A
C527        H534   1.082       .  S
C528        C529   1.423       .  A
C529        C530   1.401       .  A
C529        C536   1.519       .  S
C530        C531   1.398       .  A
C530        H535   1.084   1_565  S
C531        C532   1.413       .  A
C532        C533   1.516       .  S
C533        F537   1.385       .  S
C533        F538   1.384       .  S
C533        F539   1.382       .  S
C536        F540   1.383   1_565  S
C536        F541   1.370       .  S
C536        F542   1.379   1_565  S
C543        C544   1.411       .  A
C543        C548   1.407       .  A
C543        H550   1.082       .  S
C544        C545   1.425       .  A
C545        C546   1.403       .  A
C545        C552   1.516       .  S
C546        C547   1.405       .  A
C546        H551   1.085       .  S
C547        C548   1.418       .  A
C548        C549   1.519       .  S
C549        F553   1.385       .  S
C549        F554   1.383       .  S
C549        F555   1.383       .  S
C552        F556   1.369       .  S
C552        F557   1.383       .  S
C552        F558   1.384       .  S
C559        C560   1.407       .  A
C559        C564   1.410       .  A
C559        H566   1.081       .  S
C560        C561   1.424       .  A
C561        C562   1.402       .  A
C561        C568   1.515   1_565  S
C562        C563   1.402       .  A
C562        H567   1.084   1_565  S
C563        C564   1.425       .  A
C564        C565   1.521       .  S
C565        F569   1.385       .  S
C565        F570   1.383       .  S
C565        F571   1.383       .  S
C568        F572   1.384       .  S
C568        F573   1.368   1_545  S
C568        F574   1.383       .  S
C575        C576   1.402       .  A
C575        C580   1.409       .  A
C575        H582   1.085       .  S
C576        C577   1.414       .  A
C577        C578   1.403       .  A
C577        C584   1.522       .  S
C578        C579   1.410       .  A
C578        H583   1.082       .  S
C579        C580   1.426       .  A
C580        C581   1.515       .  S
C581        F585   1.384       .  S
C581        F586   1.383       .  S
C581        F587   1.372       .  S
C584        F588   1.382       .  S
C584        F589   1.384       .  S
C584        F590   1.385       .  S
C591        C592   1.414       .  A
C591        C596   1.426       .  A
C591        H598   1.071       .  S
C592        C593   1.421       .  A
C593        C594   1.389       .  A
C593        C600   1.509       .  S
C594        C595   1.396       .  A
C594        H599   1.084       .  S
C595        C596   1.424       .  A
C596        C597   1.517       .  S
C597        F601   1.384       .  S
C597        F602   1.383   1_556  S
C597        F603   1.383       .  S
C600        F604   1.377       .  S
C600        F605   1.380       .  S
C600        F606   1.386       .  S
C607        C608   1.403       .  A
C607        C612   1.403       .  A
C607        H614   1.083       .  S
C608        C609   1.415       .  A
C609        C610   1.407       .  A
C609        C616   1.518       .  S
C610        C611   1.411       .  A
C610        H615   1.076       .  S
C611        C612   1.424       .  A
C612        C613   1.520       .  S
C613        F617   1.385       .  S
C613        F618   1.382       .  S
C613        F619   1.376       .  S
C616        F620   1.383       .  S
C616        F621   1.384   1_554  S
C616        F622   1.385       .  S
C623        C624   1.407       .  A
C623        C628   1.402       .  A
C623        H630   1.082       .  S
C624        C625   1.428       .  A
C625        C626   1.409       .  A
C625        C632   1.514       .  S
C626        C627   1.400       .  A
C626        H631   1.085       .  S
C627        C628   1.411       .  A
C628        C629   1.515       .  S
C629        F633   1.385       .  S
C629        F634   1.383       .  S
C629        F635   1.373       .  S
C632        F636   1.384       .  S
C632        F637   1.369       .  S
C632        F638   1.383       .  S
C639        C640   1.403       .  A
C639        C644   1.400       .  A
C639        H646   1.083       .  S
C640        C641   1.431       .  A
C641        C642   1.412       .  A
C641        C648   1.514       .  S
C642        C643   1.399       .  A
C642        H647   1.085       .  S
C643        C644   1.414       .  A
C644        C645   1.512       .  S
C645        F649   1.384       .  S
C645        F650   1.382       .  S
C645        F651   1.384       .  S
C648        F652   1.383       .  S
C648        F653   1.369       .  S
C648        F654   1.384       .  S
C655        C656   1.411       .  A
C655        C660   1.410       .  A
C655        H662   1.081       .  S
C656        C657   1.430       .  A
C657        C658   1.403       .  A
C657        C664   1.514       .  S
C658        C659   1.400       .  A
C658        H663   1.085       .  S
C659        C660   1.418       .  A
C660        C661   1.519       .  S
C661        F665   1.385       .  S
C661        F666   1.383       .  S
C661        F667   1.384       .  S
C664        F668   1.383       .  S
C664        F669   1.362       .  S
C664        F670   1.385       .  S
C671        C672   1.409       .  A
C671        C676   1.409       .  A
C671        H678   1.076       .  S
C672        C673   1.423       .  A
C673        C674   1.405       .  A
C673        C680   1.511       .  S
C674        C675   1.398       .  A
C674        H679   1.085       .  S
C675        C676   1.413       .  A
C676        C677   1.518       .  S
C677        F681   1.384       .  S
C677        F682   1.383       .  S
C677        F683   1.382       .  S
C680        F684   1.373       .  S
C680        F685   1.382       .  S
C680        F686   1.385       .  S
C687        C688   1.401       .  A
C687        C692   1.403       .  A
C687        H694   1.085       .  S
C688        C689   1.416       .  A
C689        C690   1.409       .  A
C689        C696   1.519       .  S
C690        C691   1.417       .  A
C690        H695   1.080       .  S
C691        C692   1.421       .  A
C692        C693   1.514       .  S
C693        F697   1.386       .  S
C693        F698   1.375       .  S
C693        F699   1.380       .  S
C696        F700   1.383       .  S
C696        F701   1.383       .  S
C696        F702   1.385       .  S
C703        C704   1.406       .  A
C703        C708   1.409       .  A
C703        H710   1.076       .  S
C704        C705   1.425       .  A
C705        C706   1.405       .  A
C705        C712   1.519       .  S
C706        C707   1.403       .  A
C706        H711   1.084       .  S
C707        C708   1.423       .  A
C708        C709   1.521       .  S
C709        F713   1.385       .  S
C709        F714   1.383       .  S
C709        F715   1.383       .  S
C712        F716   1.377       .  S
C712        F717   1.382       .  S
C712        F718   1.385       .  S
C719        C720   1.406       .  A
C719        C724   1.414       .  A
C719        H726   1.083   1_455  S
C720        C721   1.416       .  A
C721        C722   1.398       .  A
C721        C728   1.520       .  S
C722        C723   1.405       .  A
C722        H727   1.083       .  S
C723        C724   1.424       .  A
C724        C725   1.523   1_455  S
C725        F729   1.385       .  S
C725        F730   1.379       .  S
C725        F731   1.380       .  S
C728        F732   1.384       .  S
C728        F733   1.383       .  S
C728        F734   1.385       .  S
C735        C736   1.409       .  A
C735        C740   1.405       .  A
C735        H742   1.083       .  S
C736        C737   1.432       .  A
C737        C738   1.410       .  A
C737        C744   1.519       .  S
C738        C739   1.401       .  A
C738        H743   1.082       .  S
C739        C740   1.419       .  A
C740        C741   1.520       .  S
C741        F745   1.385       .  S
C741        F746   1.383       .  S
C741        F747   1.383       .  S
C744        F748   1.370       .  S
C744        F749   1.380       .  S
C744        F750   1.385       .  S
C751        C752   1.416       .  A
C751        C756   1.414       .  A
C751        H758   1.062       .  S
C752        C753   1.431       .  A
C753        C754   1.402       .  A
C753        C760   1.514       .  S
C754        C755   1.400       .  A
C754        H759   1.084       .  S
C755        C756   1.418       .  A
C756        C757   1.520       .  S
C757        F761   1.385       .  S
C757        F762   1.384       .  S
C757        F763   1.382       .  S
C760        F764   1.374       .  S
C760        F765   1.382       .  S
C760        F766   1.385       .  S
C767        C768   1.400       .  A
C767        C772   1.410       .  A
C767        H774   1.085       .  S
C768        C769   1.413       .  A
C769        C770   1.401       .  A
C769        C776   1.515       .  S
C770        C771   1.404       .  A
C770        H775   1.083       .  S
C771        C772   1.429       .  A
C772        C773   1.516       .  S
C773        F777   1.384       .  S
C773        F778   1.378       .  S
C773        F779   1.382       .  S
C776        F780   1.383       .  S
C776        F781   1.383       .  S
C776        F782   1.382       .  S
C783        C784   1.412       .  A
C783        C788   1.408       .  A
C783        H790   1.075       .  S
C784        C785   1.427       .  A
C785        C786   1.406       .  A
C785        C792   1.513       .  S
C786        C787   1.405       .  A
C786        H791   1.084       .  S
C787        C788   1.418       .  A
C788        C789   1.521       .  S
C789        F793   1.385       .  S
C789        F794   1.383       .  S
C789        F795   1.384       .  S
C792        F796   1.363       .  S
C792        F797   1.384       .  S
C792        F798   1.384       .  S
C799        C800   1.404       .  A
C799        C804   1.397       .  A
C799        H806   1.078       .  S
C800        C801   1.423       .  A
C801        C802   1.411       .  A
C801        C808   1.517       .  S
C802        C803   1.404       .  A
C802        H807   1.084       .  S
C803        C804   1.411       .  A
C804        C805   1.521       .  S
C805        F809   1.385       .  S
C805        F810   1.378       .  S
C805        F811   1.383       .  S
C808        F812   1.384       .  S
C808        F813   1.379       .  S
C808        F814   1.383       .  S
C815        C816   1.407       .  A
C815        C820   1.409       .  A
C815        H822   1.078       .  S
C816        C817   1.421       .  A
C817        C818   1.403       .  A
C817        C824   1.514       .  S
C818        C819   1.405       .  A
C818        H823   1.084       .  S
C819        C820   1.421       .  A
C820        C821   1.520       .  S
C821        F825   1.385       .  S
C821        F826   1.383   1_655  S
C821        F827   1.384       .  S
C824        F828   1.384       .  S
C824        F829   1.368       .  S
C824        F830   1.383       .  S
C831        C832   1.412       .  A
C831        C836   1.409       .  A
C831        H838   1.081       .  S
C832        C833   1.424       .  A
C833        C834   1.404       .  A
C833        C840   1.517       .  S
C834        C835   1.400       .  A
C834        H839   1.084       .  S
C835        C836   1.414       .  A
C836        C837   1.517       .  S
C837        F841   1.385       .  S
C837        F842   1.384       .  S
C837        F843   1.382       .  S
C840        F844   1.367       .  S
C840        F845   1.379       .  S
C840        F846   1.384       .  S
C847        C848   1.397       .  A
C847        C852   1.399       .  A
C847        H854   1.085       .  S
C848        C849   1.418       .  A
C849        C850   1.412       .  A
C849        C856   1.518       .  S
C850        C851   1.410       .  A
C850        H855   1.082       .  S
C851        C852   1.426       .  A
C852        C853   1.515       .  S
C853        F857   1.385       .  S
C853        F858   1.369       .  S
C853        F859   1.382       .  S
C856        F860   1.382       .  S
C856        F861   1.384       .  S
C856        F862   1.385       .  S
C863        C864   1.396       .  A
C863        C868   1.404       .  A
C863        H870   1.086       .  S
C864        C865   1.410       .  A
C865        C866   1.411       .  A
C865        C872   1.515       .  S
C866        C867   1.409       .  A
C866        H871   1.078       .  S
C867        C868   1.430       .  A
C868        C869   1.522       .  S
C869        F873   1.383       .  S
C869        F874   1.375       .  S
C869        F875   1.384       .  S
C872        F876   1.383       .  S
C872        F877   1.383       .  S
C872        F878   1.384       .  S
C879        C880   1.408       .  A
C879        C884   1.409       .  A
C879        H886   1.080       .  S
C880        C881   1.421   1_455  A
C881        C882   1.402       .  A
C881        C888   1.513       .  S
C882        C883   1.399   1_655  A
C882        H887   1.085       .  S
C883        C884   1.416       .  A
C884        C885   1.518       .  S
C885        F889   1.385       .  S
C885        F890   1.384       .  S
C885        F891   1.382       .  S
C888        F892   1.376       .  S
C888        F893   1.384       .  S
C888        F894   1.383       .  S
C895        C896   1.399       .  A
C895        C900   1.402       .  A
C895        H902   1.085       .  S
C896        C897   1.420       .  A
C897        C898   1.411       .  A
C897        C904   1.518       .  S
C898        C899   1.405       .  A
C898        H903   1.082       .  S
C899        C900   1.424       .  A
C900        C901   1.516       .  S
C901        F905   1.382       .  S
C901        F906   1.385       .  S
C901        F907   1.377       .  S
C904        F908   1.383       .  S
C904        F909   1.383       .  S
C904        F910   1.385       .  S
C911        C912   1.403       .  A
C911        C916   1.406       .  A
C911        H918   1.085       .  S
C912        C913   1.415       .  A
C913        C914   1.404       .  A
C913        C920   1.520       .  S
C914        C915   1.406       .  A
C914        H919   1.076       .  S
C915        C916   1.420       .  A
C916        C917   1.513       .  S
C917        F921   1.384       .  S
C917        F922   1.383       .  S
C917        F923   1.375       .  S
C920        F924   1.383       .  S
C920        F925   1.383       .  S
C920        F926   1.385       .  S
C927        C928   1.403       .  A
C927        C932   1.401       .  A
C927        H934   1.084       .  S
C928        C929   1.420       .  A
C929        C930   1.410       .  A
C929        C936   1.519       .  S
C930        C931   1.410       .  A
C930        H935   1.070       .  S
C931        C932   1.423       .  A
C932        C933   1.517       .  S
C933        F937   1.385       .  S
C933        F938   1.376       .  S
C933        F939   1.383       .  S
C936        F940   1.383       .  S
C936        F941   1.383       .  S
C936        F942   1.385       .  S
C943        C944   1.412       .  A
C943        C948   1.406       .  A
C943        H950   1.076       .  S
C944        C945   1.428       .  A
C945        C946   1.402       .  A
C945        C952   1.521       .  S
C946        C947   1.397       .  A
C946        H951   1.085       .  S
C947        C948   1.409       .  A
C948        C949   1.518       .  S
C949        F953   1.385       .  S
C949        F954   1.384       .  S
C949        F955   1.382       .  S
C952        F956   1.385       .  S
C952        F957   1.372       .  S
C952        F958   1.382       .  S
C959        C960   1.407       .  A
C959        C964   1.409       .  A
C959        H966   1.078       .  S
C960        C961   1.422       .  A
C961        C962   1.403       .  A
C961        C968   1.514       .  S
C962        C963   1.404       .  A
C962        H967   1.085       .  S
C963        C964   1.418       .  A
C964        C965   1.519       .  S
C965        F969   1.385       .  S
C965        F970   1.382       .  S
C965        F971   1.384       .  S
C968        F972   1.383       .  S
C968        F973   1.370       .  S
C968        F974   1.384       .  S
C975        C976   1.406       .  A
C975        C980   1.409       .  A
C975        H982   1.078       .  S
C976        C977   1.415       .  A
C977        C978   1.400       .  A
C977        C984   1.515       .  S
C978        C979   1.405       .  A
C978        H983   1.084       .  S
C979        C980   1.421       .  A
C980        C981   1.518       .  S
C981        F985   1.385       .  S
C981        F986   1.383   1_554  S
C981        F987   1.383       .  S
C984        F988   1.384       .  S
C984        F989   1.382       .  S
C984        F990   1.383       .  S
C991        C992   1.412       .  A
C991        C996   1.409       .  A
C991        H998   1.081       .  S
C992        C993   1.430       .  A
C993        C994   1.402       .  A
C993       C1000   1.524       .  S
C994        C995   1.395       .  A
C994        H999   1.084       .  S
C995        C996   1.409       .  A
C996        C997   1.515       .  S
C997       F1001   1.384       .  S
C997       F1002   1.384       .  S
C997       F1003   1.383       .  S
C1000      F1004   1.378       .  S
C1000      F1005   1.379       .  S
C1000      F1006   1.383       .  S
C1007      C1008   1.408       .  A
C1007      C1012   1.408       .  A
C1007      H1014   1.082       .  S
C1008      C1009   1.420       .  A
C1009      C1010   1.403       .  A
C1009      C1016   1.517       .  S
C1010      C1011   1.399       .  A
C1010      H1015   1.082       .  S
C1011      C1012   1.415       .  A
C1012      C1013   1.517       .  S
C1013      F1017   1.385       .  S
C1013      F1018   1.384   1_554  S
C1013      F1019   1.382       .  S
C1016      F1020   1.380       .  S
C1016      F1021   1.379       .  S
C1016      F1022   1.385       .  S
C1023      C1024   1.410       .  A
C1023      C1028   1.409       .  A
C1023      H1030   1.081       .  S
C1024      C1025   1.425       .  A
C1025      C1026   1.403       .  A
C1025      C1032   1.515       .  S
C1026      C1027   1.404       .  A
C1026      H1031   1.085       .  S
C1027      C1028   1.419       .  A
C1028      C1029   1.519       .  S
C1029      F1033   1.385       .  S
C1029      F1034   1.383       .  S
C1029      F1035   1.383       .  S
C1032      F1036   1.368       .  S
C1032      F1037   1.383       .  S
C1032      F1038   1.384       .  S
C1039      C1040   1.404       .  A
C1039      C1044   1.412       .  A
C1039      H1046   1.083       .  S
C1040      C1041   1.417       .  A
C1041      C1042   1.398       .  A
C1041      C1048   1.521       .  S
C1042      C1043   1.407       .  A
C1042      H1047   1.082       .  S
C1043      C1044   1.428       .  A
C1044      C1045   1.517       .  S
C1045      F1049   1.385       .  S
C1045      F1050   1.371       .  S
C1045      F1051   1.382       .  S
C1048      F1052   1.383       .  S
C1048      F1053   1.384       .  S
C1048      F1054   1.385       .  S
C1055      C1056   1.401       .  A
C1055      C1060   1.417       .  A
C1055      H1062   1.085       .  S
C1056      C1057   1.408       .  A
C1057      C1058   1.393       .  A
C1057      C1064   1.523       .  S
C1058      C1059   1.417       .  A
C1058      H1063   1.078       .  S
C1059      C1060   1.437       .  A
C1060      C1061   1.513       .  S
C1061      F1065   1.385       .  S
C1061      F1066   1.383       .  S
C1061      F1067   1.375       .  S
C1064      F1068   1.374       .  S
C1064      F1069   1.383       .  S
C1064      F1070   1.385       .  S
C1071      C1072   1.411       .  A
C1071      C1076   1.408       .  A
C1071      H1078   1.083       .  S
C1072      C1073   1.429       .  A
C1073      C1074   1.399       .  A
C1073      C1080   1.525       .  S
C1074      C1075   1.393       .  A
C1074      H1079   1.083       .  S
C1075      C1076   1.409       .  A
C1076      C1077   1.516       .  S
C1077      F1081   1.384       .  S
C1077      F1082   1.383       .  S
C1077      F1083   1.383       .  S
C1080      F1084   1.374       .  S
C1080      F1085   1.379       .  S
C1080      F1086   1.385       .  S
C1087      C1088   1.396       .  A
C1087      C1092   1.404       .  A
C1087      H1094   1.084       .  S
C1088      C1089   1.418       .  A
C1089      C1090   1.409       .  A
C1089      C1096   1.519       .  S
C1090      C1091   1.413       .  A
C1090      H1095   1.083       .  S
C1091      C1092   1.436       .  A
C1092      C1093   1.514       .  S
C1093      F1097   1.386       .  S
C1093      F1098   1.381       .  S
C1093      F1099   1.362       .  S
C1096      F1100   1.383       .  S
C1096      F1101   1.383       .  S
C1096      F1102   1.385       .  S
C1103      C1104   1.407       .  A
C1103      C1108   1.401       .  A
C1103      H1110   1.083       .  S
C1104      C1105   1.427       .  A
C1105      C1106   1.415       .  A
C1105      C1112   1.517       .  S
C1106      C1107   1.408       .  A
C1106      H1111   1.084       .  S
C1107      C1108   1.419       .  A
C1108      C1109   1.520       .  S
C1109      F1113   1.385       .  S
C1109      F1114   1.383       .  S
C1109      F1115   1.383       .  S
C1112      F1116   1.373       .  S
C1112      F1117   1.383       .  S
C1112      F1118   1.384       .  S
C1119      C1120   1.410       .  A
C1119      C1124   1.412       .  A
C1119      H1126   1.081       .  S
C1120      C1121   1.424       .  A
C1121      C1122   1.406       .  A
C1121      C1128   1.519       .  S
C1122      C1123   1.402       .  A
C1122      H1127   1.083       .  S
C1123      C1124   1.417       .  A
C1124      C1125   1.517       .  S
C1125      F1129   1.385       .  S
C1125      F1130   1.383       .  S
C1125      F1131   1.382       .  S
C1128      F1132   1.377       .  S
C1128      F1133   1.379       .  S
C1128      F1134   1.385       .  S
C1135      C1136   1.415       .  A
C1135      C1140   1.399       .  A
C1135      H1142   1.078       .  S
C1136      C1137   1.432       .  A
C1137      C1138   1.418       .  A
C1137      C1144   1.514       .  S
C1138      C1139   1.402       .  A
C1138      H1143   1.085       .  S
C1139      C1140   1.409       .  A
C1140      C1141   1.523       .  S
C1141      F1145   1.384       .  S
C1141      F1146   1.383       .  S
C1141      F1147   1.383       .  S
C1144      F1148   1.371       .  S
C1144      F1149   1.383       .  S
C1144      F1150   1.384       .  S
C1151      C1152   1.404       .  A
C1151      C1156   1.407       .  A
C1151      H1158   1.077       .  S
C1152      C1153   1.419       .  A
C1153      C1154   1.407       .  A
C1153      C1160   1.512       .  S
C1154      C1155   1.405       .  A
C1154      H1159   1.084       .  S
C1155      C1156   1.427       .  A
C1156      C1157   1.523       .  S
C1157      F1161   1.385       .  S
C1157      F1162   1.383       .  S
C1157      F1163   1.383       .  S
C1160      F1164   1.385       .  S
C1160      F1165   1.373       .  S
C1160      F1166   1.382       .  S
C1167      C1168   1.410       .  A
C1167      C1172   1.408       .  A
C1167      H1174   1.081       .  S
C1168      C1169   1.430       .  A
C1169      C1170   1.406       .  A
C1169      C1176   1.515       .  S
C1170      C1171   1.398       .  A
C1170      H1175   1.082       .  S
C1171      C1172   1.417       .  A
C1172      C1173   1.519       .  S
C1173      F1177   1.385       .  S
C1173      F1178   1.383   1_655  S
C1173      F1179   1.382   1_655  S
C1176      F1180   1.373       .  S
C1176      F1181   1.375       .  S
C1176      F1182   1.385       .  S
C1183      C1184   1.399       .  A
C1183      C1188   1.399       .  A
C1183      H1190   1.083       .  S
C1184      C1185   1.420       .  A
C1185      C1186   1.408       .  A
C1185      C1192   1.517       .  S
C1186      C1187   1.406       .  A
C1186      H1191   1.085       .  S
C1187      C1188   1.426       .  A
C1188      C1189   1.525       .  S
C1189      F1193   1.384       .  S
C1189      F1194   1.384       .  S
C1189      F1195   1.375       .  S
C1192      F1196   1.380       .  S
C1192      F1197   1.383       .  S
C1192      F1198   1.384       .  S
C1199      C1200   1.412       .  A
C1199      C1204   1.413       .  A
C1199      H1206   1.083       .  S
C1200      C1201   1.427       .  A
C1201      C1202   1.398       .  A
C1201      C1208   1.521       .  S
C1202      C1203   1.391       .  A
C1202      H1207   1.080       .  S
C1203      C1204   1.412       .  A
C1204      C1205   1.515       .  S
C1205      F1209   1.385       .  S
C1205      F1210   1.383       .  S
C1205      F1211   1.383       .  S
C1208      F1212   1.382       .  S
C1208      F1213   1.368       .  S
C1208      F1214   1.380       .  S
C1215      C1216   1.412       .  A
C1215      C1220   1.408       .  A
C1215      H1222   1.082       .  S
C1216      C1217   1.427       .  A
C1217      C1218   1.402       .  A
C1217      C1224   1.516       .  S
C1218      C1219   1.403       .  A
C1218      H1223   1.085       .  S
C1219      C1220   1.417       .  A
C1220      C1221   1.519       .  S
C1221      F1225   1.385       .  S
C1221      F1226   1.383       .  S
C1221      F1227   1.383       .  S
C1224      F1228   1.367       .  S
C1224      F1229   1.383       .  S
C1224      F1230   1.384       .  S
C1231      C1232   1.411       .  A
C1231      C1236   1.402       .  A
C1231      H1238   1.081       .  S
C1232      C1233   1.427       .  A
C1233      C1234   1.408       .  A
C1233      C1240   1.515       .  S
C1234      C1235   1.401       .  A
C1234      H1239   1.085       .  S
C1235      C1236   1.410       .  A
C1236      C1237   1.519       .  S
C1237      F1241   1.385       .  S
C1237      F1242   1.383       .  S
C1237      F1243   1.383       .  S
C1240      F1244   1.373       .  S
C1240      F1245   1.384       .  S
C1240      F1246   1.383       .  S
C1247      C1248   1.412       .  A
C1247      C1252   1.407       .  A
C1247      H1254   1.083       .  S
C1248      C1249   1.433       .  A
C1249      C1250   1.409       .  A
C1249      C1256   1.518       .  S
C1250      C1251   1.401       .  A
C1250      H1255   1.082       .  S
C1251      C1252   1.418       .  A
C1252      C1253   1.520       .  S
C1253      F1257   1.385       .  S
C1253      F1258   1.383       .  S
C1253      F1259   1.384       .  S
C1256      F1260   1.373       .  S
C1256      F1261   1.379       .  S
C1256      F1262   1.385       .  S
C1263      C1264   1.402       .  A
C1263      C1268   1.406       .  A
C1263      H1270   1.084       .  S
C1264      C1265   1.431       .  A
C1265      C1266   1.407       .  A
C1265      C1272   1.523       .  S
C1266      C1267   1.404       .  A
C1266      H1271   1.085       .  S
C1267      C1268   1.422       .  A
C1268      C1269   1.519       .  S
C1269      F1273   1.385       .  S
C1269      F1274   1.383       .  S
C1269      F1275   1.383       .  S
C1272      F1276   1.380       .  S
C1272      F1277   1.379       .  S
C1272      F1278   1.382       .  S
C1279      C1280   1.391       .  A
C1279      C1284   1.396       .  A
C1279      H1286   1.082       .  S
C1280      C1281   1.409       .  A
C1281      C1282   1.410       .  A
C1281      C1288   1.514       .  S
C1282      C1283   1.412       .  A
C1282      H1287   1.082       .  S
C1283      C1284   1.428       .  A
C1284      C1285   1.521       .  S
C1285      F1289   1.385       .  S
C1285      F1290   1.374       .  S
C1285      F1291   1.382       .  S
C1288      F1292   1.383   1_554  S
C1288      F1293   1.383   1_565  S
C1288      F1294   1.384       .  S
C1295      C1296   1.411       .  A
C1295      C1300   1.402       .  A
C1295      H1302   1.082       .  S
C1296      C1297   1.429       .  A
C1297      C1298   1.409       .  A
C1297      C1304   1.518       .  S
C1298      C1299   1.399       .  A
C1298      H1303   1.085       .  S
C1299      C1300   1.408       .  A
C1300      C1301   1.519   1_545  S
C1301      F1305   1.385       .  S
C1301      F1306   1.383       .  S
C1301      F1307   1.383       .  S
C1304      F1308   1.383       .  S
C1304      F1309   1.373       .  S
C1304      F1310   1.384       .  S
C1311      C1312   1.411       .  A
C1311      C1316   1.413       .  A
C1311      H1318   1.079       .  S
C1312      C1313   1.423       .  A
C1313      C1314   1.401       .  A
C1313      C1320   1.518       .  S
C1314      C1315   1.404       .  A
C1314      H1319   1.084       .  S
C1315      C1316   1.421       .  A
C1316      C1317   1.518   1_545  S
C1317      F1321   1.385       .  S
C1317      F1322   1.383       .  S
C1317      F1323   1.383   1_565  S
C1320      F1324   1.372       .  S
C1320      F1325   1.385       .  S
C1320      F1326   1.383       .  S
C1327      C1328   1.402       .  A
C1327      C1332   1.412       .  A
C1327      H1334   1.085       .  S
C1328      C1329   1.416       .  A
C1329      C1330   1.402       .  A
C1329      C1336   1.519       .  S
C1330      C1331   1.408       .  A
C1330      H1335   1.082       .  S
C1331      C1332   1.430       .  A
C1332      C1333   1.517       .  S
C1333      F1337   1.384       .  S
C1333      F1338   1.383       .  S
C1333      F1339   1.374       .  S
C1336      F1340   1.382   1_545  S
C1336      F1341   1.383       .  S
C1336      F1342   1.385   1_545  S
C1343      C1344   1.408       .  A
C1343      C1348   1.411       .  A
C1343      H1350   1.081       .  S
C1344      C1345   1.426       .  A
C1345      C1346   1.402       .  A
C1345      C1352   1.517       .  S
C1346      C1347   1.401       .  A
C1346      H1351   1.085       .  S
C1347      C1348   1.423       .  A
C1348      C1349   1.520       .  S
C1349      F1353   1.385   1_545  S
C1349      F1354   1.383   1_545  S
C1349      F1355   1.383       .  S
C1352      F1356   1.383       .  S
C1352      F1357   1.369       .  S
C1352      F1358   1.384       .  S
C1359      C1360   1.397       .  A
C1359      C1364   1.407       .  A
C1359      H1366   1.083       .  S
C1360      C1361   1.415       .  A
C1361      C1362   1.404       .  A
C1361      C1368   1.518   1_545  S
C1362      C1363   1.410       .  A
C1362      H1367   1.084   1_545  S
C1363      C1364   1.435       .  A
C1364      C1365   1.520       .  S
C1365      F1369   1.386       .  S
C1365      F1370   1.367       .  S
C1365      F1371   1.380       .  S
C1368      F1372   1.383       .  S
C1368      F1373   1.383       .  S
C1368      F1374   1.385       .  S
C1375      C1376   1.410       .  A
C1375      C1380   1.399       .  A
C1375      H1382   1.083       .  S
C1376      C1377   1.430       .  A
C1377      C1378   1.407       .  A
C1377      C1384   1.515   1_545  S
C1378      C1379   1.396       .  A
C1378      H1383   1.085       .  S
C1379      C1380   1.409       .  A
C1380      C1381   1.519       .  S
C1381      F1385   1.383       .  S
C1381      F1386   1.383       .  S
C1381      F1387   1.385       .  S
C1384      F1388   1.384       .  S
C1384      F1389   1.367       .  S
C1384      F1390   1.383       .  S
C1391      C1392   1.405       .  A
C1391      C1396   1.401       .  A
C1391      H1398   1.083       .  S
C1392      C1393   1.431       .  A
C1393      C1394   1.409       .  A
C1393      C1400   1.514   1_545  S
C1394      C1395   1.397       .  A
C1394      H1399   1.085   1_545  S
C1395      C1396   1.412       .  A
C1396      C1397   1.515       .  S
C1397      F1401   1.383       .  S
C1397      F1402   1.383       .  S
C1397      F1403   1.383       .  S
C1400      F1404   1.384       .  S
C1400      F1405   1.369       .  S
C1400      F1406   1.383       .  S
C1407      C1408   1.410       .  A
C1407      C1412   1.408       .  A
C1407      H1414   1.083   1_545  S
C1408      C1409   1.428       .  A
C1409      C1410   1.400       .  A
C1409      C1416   1.516       .  S
C1410      C1411   1.400       .  A
C1410      H1415   1.085       .  S
C1411      C1412   1.418       .  A
C1412      C1413   1.519   1_545  S
C1413      F1417   1.385       .  S
C1413      F1418   1.383       .  S
C1413      F1419   1.383       .  S
C1416      F1420   1.364       .  S
C1416      F1421   1.383       .  S
C1416      F1422   1.385       .  S
