geometry optimzed in LAMMPS
_audit_creation_date              2020-11-30 
_audit_creation_method            'lammps2cif' 
_symmetry_space_group_name_H-M    'P1' 
_symmetry_Int_Tables_number       1 
_symmetry_cell_setting            triclinic 
loop_ 
_symmetry_equiv_pos_as_xyz 
  x,y,z 
_cell_length_a                    34.0921984 
_cell_length_b                    34.04960232538756 
_cell_length_c                    40.619292448615745 
_cell_angle_alpha                 89.4155439214107 
_cell_angle_beta                  89.8240543954571 
_cell_angle_gamma                 90.68261992259804 
loop_ 
_atom_site_label 
_atom_site_type_symbol 
_atom_site_fract_x 
_atom_site_fract_y 
_atom_site_fract_z 
_atom_site_charge 
O1          O  0.44692225  0.49255252  0.35023739    -0.71100
O2          O  0.05710334  0.00245469  0.34906962    -0.71300
O3          O  0.00752147  0.44211822  0.34623246    -0.71200
O4          O  0.49380449  0.04964077  0.34524632    -0.71200
O5          O  0.49161974  0.05264929  0.39851037    -0.71200
O6          O  0.00627657  0.43726939  0.39949871    -0.71200
O7          O  0.05425893  0.99930923  0.40235687    -0.71100
O8          O  0.45004627  0.49582647  0.40341057    -0.71300
V9          V  0.50437094  0.49637853  0.34906877     1.35200
V10         V  0.99978357  0.99893133  0.39952425     1.35200
C11         C  0.42928419  0.49332325  0.37827555     0.78100
C12         C  0.07472258  0.00294868  0.37702544     0.78200
C13         C  0.00805836  0.42072334  0.37126030     0.78000
C14         C  0.49109671  0.07020796  0.37030566     0.78000
O15         O  0.44802994  0.49160530  0.15035792    -0.71100
O16         O  0.05569781  0.00031626  0.14860280    -0.71300
O17         O  0.49424540  0.05507192  0.15053592    -0.71200
O18         O  0.00850542  0.44410767  0.15279214    -0.71200
O19         O  0.00911166  0.44278956  0.09945083    -0.71200
O20         O  0.49597568  0.05815812  0.09723247    -0.71200
O21         O  0.05218373  0.99981798  0.09536306    -0.71100
O22         O  0.44964129  0.49357805  0.09701615    -0.71300
V23         V  0.50522725  0.49677408  0.15000883     1.35200
V24         V  0.99778208  0.99644076  0.09891628     1.35200
C25         C  0.42972832  0.49069492  0.12278111     0.78100
C26         C  0.07313267  0.00111938  0.12041307     0.78200
C27         C  0.49308882  0.07565441  0.12499634     0.78000
C28         C  0.01118130  0.42439642  0.12716852     0.78000
O29         O  0.10032506  0.26324027  0.47725227    -0.71100
O30         O  0.09998643  0.17088747  0.03434518    -0.71300
O31         O  0.12738316  0.19036494  0.47164189    -0.71200
O32         O  0.07801538  0.24600827  0.03288992    -0.71200
O33         O  0.01705011  0.22665321  0.03468798    -0.71200
O34         O  0.06940264  0.16376783  0.46637587    -0.71200
O35         O  0.03902796  0.15107001  0.03513707    -0.71100
O36         O  0.04339601  0.23780173  0.46510154    -0.71300
V37         V  0.10765532  0.22056976  0.50640109     1.35200
V38         V  0.05085213  0.19934847  0.49822268     1.35200
C39         C  0.06941240  0.26407943  0.46045621     0.78100
C40         C  0.07373963  0.14797147  0.04543266     0.78200
C41         C  0.10517759  0.16542907  0.45824953     0.78000
C42         C  0.04388133  0.24946405  0.04451978     0.78000
C43         C  0.33067946  0.44559420  0.37040682     0.87100
C44         C  0.36314517  0.47417506  0.35907682    -0.53100
C45         C  0.38607626  0.48743451  0.38403296     0.10100
C46         C  0.37060301  0.47389684  0.41908673     0.21000
C47         C  0.35169630  0.41432843  0.39070880    -0.53800
C48         C  0.37289243  0.42929718  0.41619700     0.10200
C49         C  0.30554670  0.46736738  0.39555827    -0.53300
C50         C  0.32557252  0.48153654  0.42198766     0.10700
H51         H  0.37166037  0.47719047  0.33336394     0.15300
H52         H  0.38762518  0.48596137  0.44003219     0.01000
H53         H  0.34949723  0.38311009  0.38565946     0.15600
H54         H  0.27370079  0.46681509  0.39461193     0.15400
C55         C  0.32931034  0.44495785  0.13486260     0.87100
C56         C  0.30527572  0.46780607  0.10926159    -0.53100
C57         C  0.32588548  0.48023834  0.08208536     0.10100
C58         C  0.37010535  0.46905548  0.08440229     0.21000
C59         C  0.34759379  0.41177368  0.11529316    -0.53800
C60         C  0.36928896  0.42424451  0.08886007     0.10200
C61         C  0.36392910  0.47149246  0.14450926    -0.53300
C62         C  0.38676902  0.48291259  0.11852289     0.10700
H63         H  0.27355606  0.46927580  0.11067530     0.15300
H64         H  0.38750718  0.47919638  0.06270524     0.01000
H65         H  0.34255905  0.38109610  0.12156844     0.15600
H66         H  0.37289980  0.47539900  0.16992117     0.15400
C67         C  0.17127794  0.04962576  0.12751554     0.87100
C68         C  0.19685213  0.02722946  0.10302654    -0.53100
C69         C  0.17732248  0.01216368  0.07666097     0.10100
C70         C  0.13212655  0.01955720  0.07916777     0.21000
C71         C  0.15016428  0.08020276  0.10640612    -0.53800
C72         C  0.12949766  0.06424699  0.08104839     0.10200
C73         C  0.13896553  0.02111919  0.13920594    -0.53300
C74         C  0.11634921  0.00699893  0.11446744     0.10700
H75         H  0.22867553  0.02814561  0.10423624     0.15300
H76         H  0.11532687  0.00668855  0.05843360     0.01000
H77         H  0.15151192  0.11157576  0.11096163     0.15600
H78         H  0.13025992  0.01876129  0.16492174     0.15400
C79         C  0.17127688  0.05439472  0.36486745     0.87100
C80         C  0.13988393  0.02370561  0.35629665    -0.53100
C81         C  0.11719170  0.01237551  0.38228694     0.10100
C82         C  0.13139840  0.03044009  0.41587677     0.21000
C83         C  0.14897117  0.08710006  0.38174208    -0.53800
C84         C  0.12843095  0.07481235  0.40891000     0.10200
C85         C  0.19660534  0.03704075  0.39238899    -0.53300
C86         C  0.17657685  0.02415027  0.41969349     0.10700
H87         H  0.13196462  0.01726256  0.33100507     0.15300
H88         H  0.11437030  0.02049851  0.43783884     0.01000
H89         H  0.14962522  0.11734883  0.37299089     0.15600
H90         H  0.22806703  0.04088840  0.39209730     0.15400
O91         O  0.21972027  0.04321074  0.46461151    -0.71100
O92         O  0.29777101  0.01705299  0.03153377    -0.71300
O93         O  0.29577876  0.02337452  0.46530284    -0.71200
O94         O  0.22091417  0.03444310  0.03291981    -0.71200
O95         O  0.20829221  0.48006709  0.03680377    -0.71200
O96         O  0.28291915  0.45926706  0.46626563    -0.71200
O97         O  0.28463278  0.46159500  0.03644607    -0.71100
O98         O  0.20609293  0.47608455  0.46824602    -0.71300
V99         V  0.25681338  0.03076407  0.49906553     1.35200
V100        V  0.24591385  0.46851056  0.50122825     1.35200
C101        C  0.19889602  0.01631065  0.45150442     0.78100
C102        C  0.30366695  0.48886587  0.05061294     0.78200
C103        C  0.30286857  0.48745900  0.45363283     0.78000
C104        C  0.20064679  0.00623287  0.04517117     0.78000
O105        O  0.44763385  0.25277892  0.02818110    -0.71100
O106        O  0.44872551  0.33486951  0.46622549    -0.71300
O107        O  0.43493864  0.32955575  0.03393037    -0.71200
O108        O  0.47153058  0.26009660  0.47131725    -0.71200
O109        O  0.41191487  0.24422602  0.45763801    -0.71200
O110        O  0.37344657  0.31166405  0.03642675    -0.71200
O111        O  0.38764601  0.31792764  0.45848141    -0.71100
O112        O  0.38639325  0.23614002  0.02204009    -0.71300
V113        V  0.45002091  0.29720551  0.50058938     1.35200
V114        V  0.39317665  0.27760022  0.49013759     1.35200
C115        C  0.41933528  0.22987943  0.03505448     0.78100
C116        C  0.41667214  0.33985128  0.45157892     0.78200
C117        C  0.40167110  0.33196624  0.04730406     0.78000
C118        C  0.44832381  0.24014599  0.45384905     0.78000
O119        O  0.23313369  0.45485026  0.28684988    -0.71100
O120        O  0.16647669  0.41471778  0.22110328    -0.71300
O121        O  0.16588356  0.41331798  0.28645492    -0.71200
O122        O  0.23380900  0.45610624  0.22147697    -0.71200
O123        O  0.26613120  0.40153598  0.22068370    -0.71200
O124        O  0.19910408  0.35919313  0.28696555    -0.71200
O125        O  0.19899972  0.36015654  0.22105435    -0.71100
O126        O  0.26627204  0.40070644  0.28676065    -0.71300
V127        V  0.20052444  0.43369128  0.25400065     1.35200
V128        V  0.23210231  0.38146227  0.25388913     1.35200
C129        C  0.26091252  0.43469417  0.29798512     0.78100
C130        C  0.17099789  0.38045034  0.21026976     0.78200
C131        C  0.17041891  0.37873976  0.29724067     0.78000
C132        C  0.26115211  0.43597769  0.20969552     0.78000
C133        C  0.03934580  0.31504450  0.38106078     0.87100
C134        C  0.01813418  0.29702816  0.35192852    -0.53100
C135        C  0.01307426  0.32105465  0.32546905     0.10100
C136        C  0.03026973  0.36287323  0.33184823     0.21000
C137        C  0.07837519  0.32994014  0.36619344    -0.53800
C138        C  0.07340407  0.35530466  0.34021004     0.10200
C139        C  0.01706306  0.35192683  0.39056073    -0.54100
C140        C  0.01365554  0.37808717  0.36543376     0.10700
H141        H  0.01889705  0.26571167  0.34867462     0.15300
H142        H  0.02622490  0.38336070  0.31070946     0.01000
H143        H  0.10681642  0.32154592  0.37568773     0.15600
H144        H  0.00930059  0.35876798  0.41580906     0.15400
C145        C  0.05346460  0.32311793  0.11431571     0.87100
C146        C  0.02821258  0.35856835  0.10546315    -0.53100
C147        C  0.01982696  0.38165467  0.13156434     0.10100
C148        C  0.03524219  0.36458466  0.16521689     0.21000
C149        C  0.08921433  0.34035101  0.13196654    -0.53800
C150        C  0.07960646  0.36185184  0.15901024     0.10200
C151        C  0.03186539  0.29993957  0.14139481    -0.53300
C152        C  0.02195605  0.32067211  0.16860013     0.10700
H153        H  0.02230014  0.36734177  0.08018903     0.15300
H154        H  0.02769865  0.38231479  0.18709523     0.01000
H155        H  0.11917871  0.33572852  0.12389543     0.15600
H156        H  0.03207577  0.26832987  0.14141166     0.15400
C157        C  0.45420336  0.17904845  0.11388274     0.87100
C158        C  0.47872773  0.14348395  0.10428886    -0.53100
C159        C  0.48522313  0.11830705  0.12986166     0.10100
C160        C  0.46894312  0.13338368  0.16366494     0.21000
C161        C  0.41725124  0.16181963  0.13012829    -0.53800
C162        C  0.42504122  0.13778501  0.15642679     0.10200
C163        C  0.47565365  0.19935061  0.14219980    -0.53300
C164        C  0.48353953  0.17638760  0.16890509     0.10700
H165        H  0.48551196  0.13635566  0.07891918     0.15300
H166        H  0.47500062  0.11386855  0.18508100     0.01000
H167        H  0.38794378  0.16791295  0.12124240     0.15600
H168        H  0.47633145  0.23096726  0.14377688     0.15400
C169        C  0.44921895  0.17061099  0.38136609     0.87100
C170        C  0.46988847  0.19444504  0.35421489    -0.53100
C171        C  0.47990937  0.17378267  0.32692454     0.10100
C172        C  0.46824571  0.12928233  0.33073259     0.21000
C173        C  0.41403315  0.15192098  0.36409432    -0.53800
C174        C  0.42387448  0.13065857  0.33713032     0.10200
C175        C  0.47563978  0.13639298  0.39048133    -0.53300
C176        C  0.48419946  0.11303737  0.36467723     0.10700
H177        H  0.46978317  0.22614184  0.35445917     0.15300
H178        H  0.47627319  0.11154319  0.30898556     0.01000
H179        H  0.38403127  0.15533991  0.37254148     0.15600
H180        H  0.48144871  0.12796583  0.41586371     0.15400
O181        O  0.47733832  0.29384515  0.28060993    -0.71100
O182        O  0.46074401  0.21557764  0.21408827    -0.71300
O183        O  0.45924587  0.21648921  0.28210864    -0.71200
O184        O  0.47954604  0.29256182  0.21248595    -0.71200
O185        O  0.04272498  0.27995318  0.21434372    -0.71200
O186        O  0.02382375  0.20426018  0.28425019    -0.71200
O187        O  0.02723316  0.20206951  0.21616446    -0.71100
O188        O  0.03941219  0.28204936  0.28182258    -0.71300
V189        V  0.47043876  0.25427080  0.24736490     1.35200
V190        V  0.03205096  0.24231734  0.24909297     1.35200
C191        C  0.01016021  0.30052922  0.29295252     0.78100
C192        C  0.48902162  0.19697642  0.20142727     0.78200
C193        C  0.48668393  0.19653025  0.29500960     0.78000
C194        C  0.01481047  0.29797258  0.20033862     0.78000
O195        O  0.26488968  0.03784352  0.27772109    -0.71100
O196        O  0.33486246  0.07911334  0.21333519    -0.71300
O197        O  0.33355605  0.07699769  0.27858198    -0.71200
O198        O  0.26666458  0.03983298  0.21214442    -0.71200
O199        O  0.23390017  0.09413138  0.21298723    -0.71200
O200        O  0.30350966  0.13302416  0.27769645    -0.71200
O201        O  0.30194763  0.13345321  0.21196843    -0.71100
O202        O  0.23524596  0.09399913  0.27900159    -0.71300
V203        V  0.29928161  0.05944841  0.24543085     1.35200
V204        V  0.26916658  0.11256490  0.24545212     1.35200
C205        C  0.23867287  0.05930824  0.28973785     0.78100
C206        C  0.33036225  0.11344351  0.20197399     0.78200
C207        C  0.33065981  0.11172777  0.28868039     0.78000
C208        C  0.23909648  0.06039599  0.20123463     0.78000
C209        C  0.39457991  0.11219328  0.31560256    -0.15800
C210        C  0.35880095  0.12767894  0.31201810    -0.30900
H211        H  0.40347752  0.08741295  0.30080554     0.13300
H212        H  0.35101320  0.15461701  0.32437946     0.13800
C213        C  0.39486567  0.11745738  0.17634967    -0.15800
C214        C  0.35820428  0.13079949  0.17858345    -0.30900
H215        H  0.40398349  0.09278135  0.19155744     0.13300
H216        H  0.34953132  0.15734428  0.16566627     0.13800
C217        C  0.14383379  0.36403110  0.18613947    -0.15800
C218        C  0.10859349  0.38001570  0.18100681    -0.30900
H219        H  0.15184956  0.33690104  0.17415900     0.13300
H220        H  0.09949555  0.40526409  0.19514939     0.13800
C221        C  0.14179243  0.36080895  0.31995514    -0.15800
C222        C  0.10532175  0.37492623  0.32167701    -0.30900
H223        H  0.14948895  0.33375538  0.33258989     0.13300
H224        H  0.09745925  0.40034863  0.30681988     0.13800
C225        C  0.42468495  0.19863854  0.05964247    -0.15800
C226        C  0.44602366  0.20718935  0.08629960    -0.30900
H227        H  0.41002175  0.17035095  0.05713543     0.13300
H228        H  0.45683909  0.23695492  0.08904247     0.13800
C229        C  0.43682424  0.19456884  0.40984486    -0.15800
C230        C  0.46267697  0.21329909  0.42893268    -0.30900
H231        H  0.40552957  0.19769790  0.41417698     0.13300
H232        H  0.49391500  0.20964283  0.42523655     0.13800
C233        C  0.21335309  0.04455676  0.31625822    -0.15800
C234        C  0.19424888  0.06923451  0.33576903    -0.30900
H235        H  0.21089192  0.01327173  0.32071708     0.13300
H236        H  0.19597640  0.10070623  0.33105593     0.13800
C237        C  0.19372188  0.06773708  0.15519388    -0.15800
C238        C  0.21434097  0.04476859  0.17516668    -0.30900
H239        H  0.19375937  0.09938163  0.15849875     0.13300
H240        H  0.21457724  0.01353642  0.17050697     0.13800
C241        C  0.30617163  0.42886998  0.16354236    -0.15800
C242        C  0.28589089  0.45224833  0.18318855    -0.30900
H243        H  0.30526198  0.39729602  0.16787166     0.13300
H244        H  0.28598774  0.48348436  0.17805279     0.13800
C245        C  0.38850818  0.39731076  0.06586370    -0.15800
C246        C  0.39470307  0.35949206  0.07354595    -0.30900
H247        H  0.39504190  0.40816527  0.04115658     0.13300
H248        H  0.38856315  0.34748390  0.09784078     0.13800
C249        C  0.30783235  0.42798257  0.34276595    -0.15800
C250        C  0.28589418  0.45079849  0.32371944    -0.30900
H251        H  0.30835496  0.39643813  0.33889282     0.13300
H252        H  0.28500254  0.48187729  0.32879312     0.13800
C253        C  0.41174970  0.37167835  0.42831903    -0.15800
C254        C  0.39497208  0.40448277  0.43893365    -0.30900
H255        H  0.41347133  0.36509061  0.40225028     0.13300
H256        H  0.39363620  0.41094188  0.46507666     0.13800
C257        C  0.10756908  0.10217404  0.43037385    -0.15800
C258        C  0.12165275  0.13871901  0.43438507    -0.30900
H259        H  0.08290626  0.09136167  0.44499555     0.13300
H260        H  0.14882383  0.14803913  0.42248268     0.13800
C261        C  0.10680661  0.08802910  0.05797405    -0.15800
C262        C  0.08467851  0.11747409  0.06866260    -0.30900
H263        H  0.11036200  0.08286213  0.03178300     0.13300
H264        H  0.07979057  0.12211590  0.09477411     0.13800
C265        C  0.03522550  0.27898269  0.06926250    -0.15800
C266        C  0.06365547  0.29800299  0.08550652    -0.30900
H267        H  0.00479665  0.28381387  0.07582478     0.13300
H268        H  0.09429627  0.29335740  0.07936609     0.13800
C269        C  0.04320905  0.28624292  0.40869156    -0.15800
C270        C  0.06460350  0.29420899  0.43523351    -0.30900
H271        H  0.02873541  0.25770464  0.40658412     0.13300
H272        H  0.08091347  0.32171845  0.43701849     0.13800
O273        O  0.44702397  0.49491993  0.85251626    -0.71100
O274        O  0.05616754  0.00190936  0.85039704    -0.71300
O275        O  0.01085280  0.44156393  0.84719262    -0.71200
O276        O  0.49802404  0.05239678  0.84550958    -0.71200
O277        O  0.50039963  0.05317521  0.89883823    -0.71200
O278        O  0.01139266  0.43749689  0.90047512    -0.71200
O279        O  0.05285375  0.00024891  0.90367214    -0.71100
O280        O  0.45007490  0.49439903  0.90582665    -0.71300
V281        V  0.50437704  0.49860125  0.85118191     1.35200
V282        V  0.99825030  0.99687043  0.90065782     1.35200
C283        C  0.42948487  0.49265185  0.88057275     0.78100
C284        C  0.07367538  0.00285315  0.87837202     0.78200
C285        C  0.01288595  0.42047357  0.87234816     0.78000
C286        C  0.49824019  0.07190973  0.87128456     0.78000
O287        O  0.44678181  0.49768347  0.64784545    -0.71100
O288        O  0.05816844  0.00731602  0.64942304    -0.71300
O289        O  0.49103996  0.05768371  0.65372188    -0.71200
O290        O  0.00529082  0.44786361  0.65329474    -0.71200
O291        O  0.00582447  0.44542460  0.59999590    -0.71200
O292        O  0.49239624  0.06288900  0.60050205    -0.71200
O293        O  0.05708764  0.00778016  0.59607483    -0.71100
O294        O  0.45020376  0.49656492  0.59455072    -0.71300
V295        V  0.50393001  0.50206682  0.64877789     1.35200
V296        V  0.00278818  0.00049373  0.59776954     1.35200
C297        C  0.42951341  0.49502947  0.61988889     0.78100
C298        C  0.07663296  0.01065408  0.62185821     0.78200
C299        C  0.48977683  0.07929242  0.62882067     0.78000
C300        C  0.00714447  0.42752795  0.62802002     0.78000
O301        O  0.07720384  0.24403609  0.96731694    -0.71100
O302        O  0.11728512  0.17870532  0.53572613    -0.71300
O303        O  0.09910760  0.16913916  0.96929159    -0.71200
O304        O  0.09022715  0.25181297  0.54114958    -0.71200
O305        O  0.03031797  0.23422146  0.52987797    -0.71200
O306        O  0.03758378  0.15125587  0.96911658    -0.71200
O307        O  0.05658639  0.15946692  0.53073972    -0.71100
O308        O  0.01571557  0.22647264  0.96912004    -0.71300
V309        V  0.08733361  0.20720673  0.00100583     1.35200
V310        V  0.02846549  0.18922066  0.00206338     1.35200
C311        C  0.04263046  0.24773665  0.95685253     0.78100
C312        C  0.09023998  0.15430017  0.54274482     0.78200
C313        C  0.07209856  0.14722852  0.95850818     0.78000
C314        C  0.05391034  0.25510701  0.54622630     0.78000
C315        C  0.32135574  0.46667772  0.86861482     0.87100
C316        C  0.36105958  0.48524216  0.85992256    -0.53100
C317        C  0.38644855  0.48581613  0.88555122     0.10100
C318        C  0.36801705  0.46942170  0.91877905     0.21000
C319        C  0.33017487  0.42634585  0.88344452    -0.53800
C320        C  0.35464657  0.42769677  0.90958027     0.10200
C321        C  0.30507335  0.48954019  0.89763436    -0.53300
C322        C  0.32822193  0.49060784  0.92491089     0.10700
H323        H  0.36939974  0.49390443  0.83502953     0.15300
H324        H  0.38801500  0.47045645  0.94027738     0.01000
H325        H  0.31705259  0.39911482  0.87474676     0.15600
H326        H  0.27423359  0.49518941  0.89924256     0.15400
C327        C  0.33140293  0.44595837  0.63122879     0.87100
C328        C  0.30662158  0.46697884  0.60523580    -0.53100
C329        C  0.32695490  0.47968153  0.57812291     0.10100
C330        C  0.37165447  0.47075812  0.58081066     0.21000
C331        C  0.35164425  0.41325085  0.61258094    -0.53800
C332        C  0.37243478  0.42606283  0.58580981     0.10200
C333        C  0.36435177  0.47438695  0.64080065    -0.53300
C334        C  0.38703117  0.48622072  0.61491532     0.10700
H335        H  0.27481169  0.46721410  0.60644601     0.15300
H336        H  0.38878619  0.48121634  0.55906471     0.01000
H337        H  0.34974005  0.38255977  0.62005632     0.15600
H338        H  0.37272869  0.47920009  0.66624618     0.15400
C339        C  0.18325024  0.04441485  0.63447426     0.87100
C340        C  0.20108754  0.02182715  0.60571681    -0.53100
C341        C  0.17788061  0.01824006  0.57851465     0.10100
C342        C  0.13680003  0.03713976  0.58430081     0.21000
C343        C  0.17164393  0.08354792  0.61892719    -0.53800
C344        C  0.14697864  0.07991602  0.59307348     0.10200
C345        C  0.14455111  0.02347129  0.64344476    -0.53300
C346        C  0.11935937  0.02031109  0.61765602     0.10700
H347        H  0.23216122  0.01646720  0.60471968     0.15300
H348        H  0.11697604  0.03454835  0.56277918     0.01000
H349        H  0.18238348  0.11187260  0.62742004     0.15600
H350        H  0.13655603  0.01511726  0.66846777     0.15400
C351        C  0.16961998  0.05683899  0.87098552     0.87100
C352        C  0.13847863  0.02744008  0.85896587    -0.53100
C353        C  0.11663656  0.01083862  0.88369244     0.10100
C354        C  0.13189180  0.02238038  0.91898155     0.21000
C355        C  0.14709710  0.08521516  0.89288076    -0.53800
C356        C  0.12743611  0.06699769  0.91814280     0.10200
C357        C  0.19613149  0.03430994  0.89492191    -0.53300
C358        C  0.17718215  0.01674775  0.92084882     0.10700
H359        H  0.12976963  0.02603587  0.83329163     0.15300
H360        H  0.11587921  0.00774680  0.93965963     0.01000
H361        H  0.14741303  0.11688408  0.88928849     0.15600
H362        H  0.22792377  0.03648233  0.89362642     0.15400
O363        O  0.22008992  0.03651943  0.96493659    -0.71100
O364        O  0.29500963  0.02040144  0.53333327    -0.71300
O365        O  0.29673369  0.01898123  0.96361023    -0.71200
O366        O  0.21859736  0.04091366  0.53299400    -0.71200
O367        O  0.20815507  0.47548333  0.53624341    -0.71200
O368        O  0.28601511  0.46516696  0.96851278    -0.71200
O369        O  0.28490676  0.45830803  0.53416017    -0.71100
O370        O  0.20894515  0.48297306  0.96818245    -0.71300
V371        V  0.25845868  0.02550698  0.99825160     1.35200
V372        V  0.24728804  0.47367533  0.00248447     1.35200
C373        C  0.20046387  0.00887841  0.95180281     0.78100
C374        C  0.30428642  0.48640100  0.54683660     0.78200
C375        C  0.30662471  0.49377332  0.95732173     0.78000
C376        C  0.19855871  0.01288516  0.54570897     0.78000
O377        O  0.45340511  0.26059315  0.53540203    -0.71100
O378        O  0.43593092  0.33776951  0.96901767    -0.71300
O379        O  0.43034075  0.33529142  0.52985346    -0.71200
O380        O  0.44828699  0.26059003  0.96273569    -0.71200
O381        O  0.38508150  0.25513757  0.95749821    -0.71200
O382        O  0.37196826  0.31042479  0.52237566    -0.71200
O383        O  0.37263192  0.32990478  0.97256087    -0.71100
O384        O  0.39671418  0.23622669  0.52139304    -0.71300
V385        V  0.44065892  0.29470877  0.99837153     1.35200
V386        V  0.38044786  0.28335970  0.99716199     1.35200
C387        C  0.42642862  0.23531426  0.53971621     0.78100
C388        C  0.40199999  0.34942511  0.96207118     0.78200
C389        C  0.39398151  0.33529616  0.53600824     0.78000
C390        C  0.41900578  0.24749747  0.94724523     0.78000
O391        O  0.24341762  0.45217787  0.78485683    -0.71100
O392        O  0.16875791  0.42259450  0.72037193    -0.71300
O393        O  0.17274784  0.41670167  0.78545853    -0.71200
O394        O  0.23922132  0.45878045  0.71966813    -0.71200
O395        O  0.26530943  0.40145456  0.71319667    -0.71200
O396        O  0.20312106  0.36095953  0.78299985    -0.71200
O397        O  0.19605200  0.36525181  0.71775028    -0.71100
O398        O  0.27351142  0.39690306  0.77781856    -0.71300
V399        V  0.20663254  0.43656606  0.75254629     1.35200
V400        V  0.23392395  0.38221843  0.74811555     1.35200
C401        C  0.27172657  0.42981140  0.79146436     0.78100
C402        C  0.16955032  0.38834875  0.70865493     0.78200
C403        C  0.17616233  0.38156788  0.79498626     0.78000
C404        C  0.26310829  0.43720033  0.70492789     0.78000
C405        C  0.05324884  0.31859114  0.88413832     0.87100
C406        C  0.03355174  0.29641516  0.85593235    -0.53100
C407        C  0.02507904  0.31843659  0.82865571     0.10100
C408        C  0.03768410  0.36241052  0.83341034     0.21000
C409        C  0.08975337  0.33697965  0.86821872    -0.53800
C410        C  0.08166466  0.35971101  0.84128462     0.10200
C411        C  0.02721579  0.35332281  0.89271043    -0.54100
C412        C  0.02030510  0.37775246  0.86689036     0.10700
H413        H  0.03390139  0.26476923  0.85549580     0.15300
H414        H  0.03132945  0.38124343  0.81163426     0.01000
H415        H  0.11917844  0.33245045  0.87755016     0.15600
H416        H  0.02013442  0.36094489  0.91793566     0.15400
C417        C  0.05223096  0.32892735  0.61599479     0.87100
C418        C  0.02363460  0.36162826  0.60731959    -0.53100
C419        C  0.01450169  0.38465488  0.63331318     0.10100
C420        C  0.03191964  0.36918600  0.66697721     0.21000
C421        C  0.08663715  0.34978596  0.63268064    -0.53800
C422        C  0.07618182  0.37046139  0.65993046     0.10200
C423        C  0.03352664  0.30411702  0.64350440    -0.53300
C424        C  0.02276133  0.32415865  0.67082181     0.10700
H425        H  0.01716473  0.36987848  0.58201924     0.15300
H426        H  0.02329061  0.38629073  0.68892158     0.01000
H427        H  0.11660356  0.34796749  0.62374923     0.15600
H428        H  0.03511771  0.27245053  0.64332652     0.15400
C429        C  0.45770342  0.18557717  0.61958137     0.87100
C430        C  0.47835811  0.14795506  0.60952776    -0.53100
C431        C  0.48271492  0.12197811  0.63471318     0.10100
C432        C  0.46804554  0.13812586  0.66888363     0.21000
C433        C  0.41928544  0.17224001  0.63609754    -0.53800
C434        C  0.42475436  0.14733303  0.66215140     0.10200
C435        C  0.48159272  0.20334642  0.64760406    -0.53300
C436        C  0.48681883  0.17967188  0.67437145     0.10700
H437        H  0.48508694  0.14089954  0.58411584     0.15300
H438        H  0.47234308  0.11767851  0.69000564     0.01000
H439        H  0.39063335  0.18167114  0.62779475     0.15600
H440        H  0.48587287  0.23468602  0.64901081     0.15400
C441        C  0.45988827  0.17266996  0.88748180     0.87100
C442        C  0.47945294  0.19692611  0.85992319    -0.53100
C443        C  0.48699063  0.17682892  0.83175745     0.10100
C444        C  0.47432189  0.13273847  0.83488802     0.21000
C445        C  0.42303734  0.15503203  0.87160106    -0.53800
C446        C  0.43052615  0.13476402  0.84347838     0.10200
C447        C  0.48630960  0.13759670  0.89415080    -0.53300
C448        C  0.49237340  0.11503309  0.86735386     0.10700
H449        H  0.48158180  0.22857331  0.86112654     0.15300
H450        H  0.48042913  0.11575575  0.81227871     0.01000
H451        H  0.39375473  0.15874088  0.88159129     0.15600
H452        H  0.49357569  0.12777201  0.91887872     0.15400
O453        O  0.48268100  0.29642810  0.78729936    -0.71100
O454        O  0.46442015  0.21931718  0.71969355    -0.71300
O455        O  0.46484565  0.21919327  0.78762977    -0.71200
O456        O  0.48220742  0.29682943  0.71892325    -0.71200
O457        O  0.04554462  0.28117626  0.71445008    -0.71200
O458        O  0.02915360  0.20158631  0.78167044    -0.71200
O459        O  0.02810159  0.20361966  0.71341622    -0.71100
O460        O  0.04666561  0.27889011  0.78263724    -0.71300
V461        V  0.47475767  0.25763707  0.75336825     1.35200
V462        V  0.03614405  0.24164911  0.74802676     1.35200
C463        C  0.01874694  0.29730367  0.79619377     0.78100
C464        C  0.49244707  0.20042405  0.70682054     0.78200
C465        C  0.49291893  0.19987420  0.80008745     0.78000
C466        C  0.01729854  0.30079986  0.70253502     0.78000
O467        O  0.26476256  0.05493727  0.78414625    -0.71100
O468        O  0.33118648  0.09664673  0.71843758    -0.71300
O469        O  0.33537931  0.08986837  0.78335833    -0.71200
O470        O  0.26027110  0.06208385  0.71880295    -0.71200
O471        O  0.23136864  0.11802598  0.72550582    -0.71200
O472        O  0.30826915  0.14707552  0.78785028    -0.71200
O473        O  0.30282179  0.15327705  0.72226228    -0.71100
O474        O  0.23766550  0.11166483  0.79082074    -0.71300
V475        V  0.29721921  0.07696727  0.75128053     1.35200
V476        V  0.27055802  0.13150056  0.75642487     1.35200
C477        C  0.24013811  0.07577933  0.79876872     0.78100
C478        C  0.32913883  0.13216724  0.70970739     0.78200
C479        C  0.33490189  0.12356339  0.79608100     0.78000
C480        C  0.23268042  0.08510298  0.71164690     0.78000
C481        C  0.39953238  0.11839908  0.82223042    -0.15800
C482        C  0.36472555  0.13609967  0.81963117    -0.30900
H483        H  0.40664687  0.09392553  0.80642462     0.13300
H484        H  0.35897338  0.16271872  0.83324174     0.13800
C485        C  0.39277295  0.13073293  0.68251133    -0.15800
C486        C  0.35817432  0.14866547  0.68659371    -0.30900
H487        H  0.39915707  0.10413589  0.69640304     0.13300
H488        H  0.35249479  0.17694150  0.67510669     0.13800
C489        C  0.14079749  0.37432438  0.68499149    -0.15800
C490        C  0.10502821  0.38966168  0.68163988    -0.30900
H491        H  0.14842187  0.34774235  0.67201963     0.13300
H492        H  0.09584802  0.41387302  0.69695326     0.13800
C493        C  0.14812490  0.36438612  0.81825928    -0.15800
C494        C  0.11203654  0.37928818  0.82117641    -0.30900
H495        H  0.15582057  0.33704138  0.83045355     0.13300
H496        H  0.10350388  0.40456583  0.80642176     0.13800
C497        C  0.42962206  0.20601356  0.56594586    -0.15800
C498        C  0.45210969  0.21398269  0.59195722    -0.30900
H499        H  0.41302121  0.17864423  0.56456044     0.13300
H500        H  0.46635349  0.24246563  0.59372608     0.13800
C501        C  0.45142292  0.19579217  0.91772416    -0.15800
C502        C  0.42456884  0.22407513  0.91788253    -0.30900
H503        H  0.46704835  0.18871255  0.94019916     0.13300
H504        H  0.40629076  0.22956406  0.89650505     0.13800
C505        C  0.21548954  0.05749850  0.82435166    -0.15800
C506        C  0.19175211  0.07772479  0.84381916    -0.30900
H507        H  0.21793369  0.02612591  0.82851816     0.13300
H508        H  0.18943298  0.10937166  0.84082834     0.13800
C509        C  0.21103298  0.05035977  0.66257348    -0.15800
C510        C  0.20273381  0.07437085  0.68748059    -0.30900
H511        H  0.24002982  0.03831557  0.66066484     0.13300
H512        H  0.17470801  0.08921692  0.68823904     0.13800
C513        C  0.30848179  0.42988282  0.65962950    -0.15800
C514        C  0.28735621  0.45338121  0.67842271    -0.30900
H515        H  0.30845325  0.39839266  0.66441577     0.13300
H516        H  0.28712968  0.48462426  0.67312860     0.13800
C517        C  0.39241394  0.39889948  0.56360840    -0.15800
C518        C  0.37670517  0.36329429  0.55833651    -0.30900
H519        H  0.41854873  0.40874839  0.55040756     0.13300
H520        H  0.34837558  0.35525979  0.56890121     0.13800
C521        C  0.29359345  0.46342051  0.84055430    -0.15800
C522        C  0.30192627  0.44080337  0.81492015    -0.30900
H523        H  0.26474177  0.47548780  0.84331149     0.13300
H524        H  0.33002368  0.42610862  0.81362569     0.13800
C525        C  0.39670547  0.38529652  0.94268454    -0.15800
C526        C  0.36209110  0.39223473  0.92886392    -0.30900
H527        H  0.42123231  0.40562497  0.93924892     0.13300
H528        H  0.33868618  0.37028631  0.93034883     0.13800
C529        C  0.10595477  0.08878163  0.94309437    -0.15800
C530        C  0.08164295  0.11755938  0.93445945    -0.30900
H531        H  0.11277655  0.08325321  0.96882842     0.13300
H532        H  0.07344459  0.12234387  0.90891114     0.13800
C533        C  0.13494488  0.11484240  0.57474633    -0.15800
C534        C  0.09880275  0.11943252  0.56280226    -0.30900
H535        H  0.15660845  0.13839875  0.57228831     0.13300
H536        H  0.07631751  0.09693206  0.56657904     0.13800
C537        C  0.03974767  0.28284266  0.57061996    -0.15800
C538        C  0.06518735  0.30488955  0.58754109    -0.30900
H539        H  0.00859215  0.28501054  0.57543039     0.13300
H540        H  0.09638414  0.30366845  0.58205625     0.13800
C541        C  0.06260475  0.29298125  0.91305294    -0.15800
C542        C  0.03388449  0.27565013  0.93053191    -0.30900
H543        H  0.09314310  0.28776889  0.91917077     0.13300
H544        H  0.00351230  0.28145500  0.92456797     0.13800
O545        O  0.44019782  0.99030785  0.34928766    -0.71100
O546        O  0.06122165  0.50096555  0.35148245    -0.71300
O547        O  0.00128758  0.94491723  0.34565644    -0.71200
O548        O  0.50144618  0.55070428  0.34618962    -0.71200
O549        O  0.50524201  0.55299229  0.39940263    -0.71200
O550        O  0.99980261  0.94157319  0.39897939    -0.71200
O551        O  0.05725111  0.49831516  0.40473859    -0.71100
O552        O  0.44177612  0.98992699  0.40265944    -0.71300
V553        V  0.49736003  0.99526485  0.34908075     1.35200
V554        V  0.00286364  0.49447536  0.40114515     1.35200
C555        C  0.42195520  0.98769436  0.37696737     0.78100
C556        C  0.07824753  0.50171586  0.37965784     0.78200
C557        C  0.00132883  0.92417658  0.37109818     0.78000
C558        C  0.50299769  0.57098663  0.37148923     0.78000
O559        O  0.44251283  0.99390008  0.14673036    -0.71100
O560        O  0.05999954  0.50544949  0.15048790    -0.71300
O561        O  0.50117187  0.55134335  0.15313485    -0.71200
O562        O  0.00229529  0.94144455  0.15313640    -0.71200
O563        O  0.00156810  0.93907828  0.09982263    -0.71200
O564        O  0.50007583  0.55514272  0.09985378    -0.71200
O565        O  0.05856132  0.50544757  0.09714634    -0.71100
O566        O  0.44625233  0.99562629  0.09344681    -0.71300
V567        V  0.49958486  0.00083872  0.14836170     1.35200
V568        V  0.00389236  0.49999205  0.09925990     1.35200
C569        C  0.42547311  0.99144831  0.11860191     0.78100
C570        C  0.07835419  0.50825226  0.12287069     0.78200
C571        C  0.49889428  0.57236496  0.12784238     0.78000
C572        C  0.00421760  0.92128116  0.12779989     0.78000
O573        O  0.09620762  0.75934994  0.46058177    -0.71100
O574        O  0.14563764  0.70033296  0.03223235    -0.71300
O575        O  0.12734346  0.68857901  0.45896427    -0.71200
O576        O  0.10974510  0.77020013  0.02662786    -0.71200
O577        O  0.05415445  0.73887716  0.03302137    -0.71200
O578        O  0.06989018  0.66285407  0.46975304    -0.71200
O579        O  0.08968364  0.66900375  0.03471711    -0.71100
O580        O  0.03900728  0.73459574  0.47306043    -0.71300
V581        V  0.11884512  0.72588008  0.49200477     1.35200
V582        V  0.06401352  0.70088475  0.50315225     1.35200
C583        C  0.05958384  0.75812899  0.45612089     0.78100
C584        C  0.12471121  0.67271122  0.04405681     0.78200
C585        C  0.10124263  0.66313403  0.45313939     0.78000
C586        C  0.07626134  0.76776754  0.03958579     0.78000
C587        C  0.31384467  0.96255729  0.36288345     0.87100
C588        C  0.35418301  0.98004025  0.35483026    -0.53100
C589        C  0.37894879  0.98007175  0.38090532     0.10100
C590        C  0.35956802  0.96368013  0.41369151     0.21000
C591        C  0.32127548  0.92176429  0.37759071    -0.53800
C592        C  0.34545303  0.92223737  0.40403175     0.10200
C593        C  0.29774536  0.98582210  0.39185679    -0.53300
C594        C  0.32036239  0.98589475  0.41943080     0.10700
H595        H  0.36312570  0.98906538  0.33016883     0.15300
H596        H  0.37914792  0.96425678  0.43545687     0.01000
H597        H  0.30795102  0.89491887  0.36833224     0.15600
H598        H  0.26738538  0.99394893  0.39270254     0.15400
C599        C  0.32405409  0.94612296  0.13032056     0.87100
C600        C  0.30191145  0.96763681  0.10293813    -0.53100
C601        C  0.32370315  0.97650918  0.07565458     0.10100
C602        C  0.36742744  0.96374859  0.07965561     0.21000
C603        C  0.34161043  0.91046278  0.11364863    -0.53800
C604        C  0.36374572  0.91933765  0.08662040     0.10200
C605        C  0.35919384  0.97201841  0.13935034    -0.53300
C606        C  0.38327250  0.98040866  0.11341261     0.10700
H607        H  0.27028330  0.97109751  0.10356617     0.15300
H608        H  0.38598192  0.97099377  0.05786275     0.01000
H609        H  0.33648579  0.88060133  0.12242473     0.15600
H610        H  0.36680637  0.97880230  0.16463176     0.15400
C611        C  0.18097338  0.55066163  0.13597509     0.87100
C612        C  0.20332111  0.52775735  0.10953344    -0.53100
C613        C  0.18201309  0.51896945  0.08194792     0.10100
C614        C  0.13876811  0.53317696  0.08500293     0.21000
C615        C  0.16523011  0.58640853  0.11759718    -0.53800
C616        C  0.14349952  0.57747879  0.09067760     0.10200
C617        C  0.14451230  0.52609464  0.14500679    -0.53300
C618        C  0.12117078  0.51784680  0.11878050     0.10700
H619        H  0.23487131  0.52429307  0.11057642     0.15300
H620        H  0.12062340  0.52604580  0.06315665     0.01000
H621        H  0.17054540  0.61630390  0.12562851     0.15600
H622        H  0.13558860  0.52025247  0.17029904     0.15400
C623        C  0.17811302  0.54854748  0.36993332     0.87100
C624        C  0.14454270  0.52110573  0.35983592    -0.53100
C625        C  0.12083227  0.51008465  0.38532398     0.10100
C626        C  0.13577240  0.52532781  0.41966349     0.21000
C627        C  0.15836649  0.58208258  0.38819355    -0.53800
C628        C  0.13574021  0.56992556  0.41429383     0.10200
C629        C  0.20149095  0.52703117  0.39649019    -0.53300
C630        C  0.18022318  0.51554719  0.42339693     0.10700
H631        H  0.13678182  0.51626594  0.33425910     0.15300
H632        H  0.11777394  0.51531770  0.44105809     0.01000
H633        H  0.16317684  0.61262415  0.38135381     0.15600
H634        H  0.23331204  0.52570597  0.39584806     0.15400
O635        O  0.22235663  0.53786313  0.46712562    -0.71100
O636        O  0.29971158  0.52350420  0.03918183    -0.71300
O637        O  0.29933642  0.52097566  0.46662689    -0.71200
O638        O  0.22331881  0.54209916  0.03719064    -0.71200
O639        O  0.20433083  0.97282001  0.03193209    -0.71200
O640        O  0.27785100  0.96213281  0.46342552    -0.71200
O641        O  0.28148748  0.95529131  0.03148909    -0.71100
O642        O  0.20129795  0.98210132  0.46408935    -0.71300
V643        V  0.26058262  0.52804321  0.50088209     1.35200
V644        V  0.24008442  0.97184529  0.49786625     1.35200
C645        C  0.20225935  0.50975639  0.45515274     0.78100
C646        C  0.30171314  0.98301695  0.04393138     0.78200
C647        C  0.29881977  0.99016981  0.45174620     0.78000
C648        C  0.20411476  0.51353242  0.04989467     0.78000
O649        O  0.43803582  0.74927337  0.03057094    -0.71100
O650        O  0.42865599  0.83765711  0.46693403    -0.71300
O651        O  0.40914146  0.82259101  0.02975361    -0.71200
O652        O  0.45006630  0.76234045  0.46190148    -0.71200
O653        O  0.38795092  0.75033610  0.45412111    -0.71200
O654        O  0.34985039  0.79825336  0.02940154    -0.71200
O655        O  0.36631318  0.82325909  0.46701606    -0.71100
O656        O  0.37877727  0.72491663  0.03051423    -0.71300
V657        V  0.43579677  0.79584819  0.49703143     1.35200
V658        V  0.37729818  0.77804634  0.49289204     1.35200
C659        C  0.41332333  0.72426472  0.04142766     0.78100
C660        C  0.39435499  0.84559333  0.45786754     0.78200
C661        C  0.37410830  0.82356236  0.03972616     0.78000
C662        C  0.42302256  0.74642745  0.44520357     0.78000
O663        O  0.23429580  0.95696068  0.28128380    -0.71100
O664        O  0.15474557  0.94316448  0.21771498    -0.71300
O665        O  0.15964430  0.93091759  0.28197737    -0.71200
O666        O  0.22989887  0.96897751  0.21678163    -0.71200
O667        O  0.24525575  0.90896848  0.20536207    -0.71200
O668        O  0.18533281  0.87299110  0.27726237    -0.71200
O669        O  0.17189358  0.88212583  0.21345594    -0.71100
O670        O  0.25860503  0.90020629  0.26902595    -0.71300
V671        V  0.19514245  0.94907231  0.24927539     1.35200
V672        V  0.21484074  0.89215571  0.24136287     1.35200
C673        C  0.26056392  0.93150746  0.28522375     0.78100
C674        C  0.14842209  0.90938912  0.20630236     0.78200
C675        C  0.16077384  0.89521243  0.29049926     0.78000
C676        C  0.24944332  0.94526476  0.19990637     0.78000
C677        C  0.04779621  0.82715501  0.38327505     0.87100
C678        C  0.02848391  0.80149274  0.35700815    -0.53100
C679        C  0.01636387  0.82140559  0.32963619     0.10100
C680        C  0.02434633  0.86654062  0.33235441     0.21000
C681        C  0.08065476  0.84908059  0.36525049    -0.53800
C682        C  0.06871847  0.86929652  0.33814627     0.10200
C683        C  0.01832145  0.85871091  0.39230932    -0.54100
C684        C  0.00753240  0.88136788  0.36620233     0.10700
H685        H  0.02918010  0.76967911  0.35826477     0.15300
H686        H  0.01437176  0.88330723  0.31038909     0.01000
H687        H  0.11082074  0.84900131  0.37373924     0.15600
H688        H  0.01287973  0.86700975  0.41766448     0.15400
C689        C  0.03702573  0.81591100  0.11578054     0.87100
C690        C  0.01481837  0.85340718  0.10736512    -0.53100
C691        C  0.01259418  0.87872244  0.13284646     0.10100
C692        C  0.03099603  0.86225758  0.16570548     0.21000
C693        C  0.07661588  0.82941138  0.12938200    -0.53800
C694        C  0.07360559  0.85386764  0.15534687     0.10200
C695        C  0.01708636  0.79705519  0.14557180    -0.53300
C696        C  0.01330686  0.82026587  0.17244528     0.10700
H697        H  0.00545746  0.86091600  0.08256792     0.15300
H698        H  0.02871145  0.88203373  0.18716942     0.01000
H699        H  0.10466198  0.81949462  0.11998178     0.15600
H700        H  0.01895940  0.76582587  0.14863993     0.15400
C701        C  0.45995748  0.67583944  0.11736459     0.87100
C702        C  0.48409822  0.64015720  0.10746276    -0.53100
C703        C  0.49178336  0.61528669  0.13302221     0.10100
C704        C  0.47694768  0.63093097  0.16717672     0.21000
C705        C  0.42373887  0.65864509  0.13516471    -0.53800
C706        C  0.43280886  0.63480305  0.16131003     0.10200
C707        C  0.48251460  0.69663270  0.14464444    -0.53300
C708        C  0.49114067  0.67437258  0.17160452     0.10700
H709        H  0.48969860  0.63267184  0.08195818     0.15300
H710        H  0.48425398  0.61174666  0.18851445     0.01000
H711        H  0.39395422  0.66444774  0.12733171     0.15600
H712        H  0.48238209  0.72819983  0.14586635     0.15400
C713        C  0.46539549  0.67169662  0.38597662     0.87100
C714        C  0.48272987  0.69550178  0.35729409    -0.53100
C715        C  0.49066521  0.67485493  0.32954095     0.10100
C716        C  0.47941859  0.63054202  0.33401155     0.21000
C717        C  0.42836071  0.65250926  0.37123355    -0.53800
C718        C  0.43580392  0.63142276  0.34342864     0.10200
C719        C  0.49307804  0.63764671  0.39277331    -0.53300
C720        C  0.49853999  0.61417479  0.36647972     0.10700
H721        H  0.47967309  0.72688345  0.35674069     0.15300
H722        H  0.48557283  0.61303782  0.31169317     0.01000
H723        H  0.39922935  0.65564975  0.38167255     0.15600
H724        H  0.50125025  0.62879951  0.41758152     0.15400
O725        O  0.47736616  0.79203608  0.28328358    -0.71100
O726        O  0.46555936  0.71331055  0.21617887    -0.71300
O727        O  0.46539275  0.71378874  0.28418418    -0.71200
O728        O  0.47742309  0.79189665  0.21500613    -0.71200
O729        O  0.03892260  0.78178716  0.21789086    -0.71200
O730        O  0.02594233  0.70268920  0.28606338    -0.71200
O731        O  0.02502761  0.70330809  0.21794799    -0.71100
O732        O  0.03965816  0.78059266  0.28570771    -0.71300
V733        V  0.47268157  0.75255577  0.24962862     1.35200
V734        V  0.03115934  0.74233676  0.25188522     1.35200
C735        C  0.01091445  0.79862727  0.29824812     0.78100
C736        C  0.49503410  0.69627619  0.20373813     0.78200
C737        C  0.49484092  0.69722955  0.29721864     0.78000
C738        C  0.00961101  0.79897998  0.20520485     0.78000
O739        O  0.27734135  0.53363700  0.28683002    -0.71100
O740        O  0.34523801  0.57502417  0.22095106    -0.71300
O741        O  0.34538735  0.57440569  0.28650342    -0.71200
O742        O  0.27742758  0.53379118  0.22138936    -0.71200
O743        O  0.24494044  0.58826214  0.22147972    -0.71200
O744        O  0.31328981  0.62921509  0.28626124    -0.71200
O745        O  0.31205519  0.62920181  0.22040742    -0.71100
O746        O  0.24581944  0.58868717  0.28712319    -0.71300
V747        V  0.31071722  0.55522504  0.25392956     1.35200
V748        V  0.27961732  0.60773575  0.25383098     1.35200
C749        C  0.25013251  0.55430510  0.29821494     0.78100
C750        C  0.34028196  0.60940530  0.20979158     0.78200
C751        C  0.34131874  0.60891583  0.29702473     0.78000
C752        C  0.24975639  0.55415831  0.21025079     0.78000
C753        C  0.40553540  0.61159202  0.32357071    -0.15800
C754        C  0.36920746  0.62583745  0.32050978    -0.30900
H755        H  0.41459137  0.58698543  0.30863207     0.13300
H756        H  0.36101667  0.65251526  0.33310304     0.13800
C757        C  0.40375052  0.61404324  0.18215785    -0.15800
C758        C  0.36717309  0.62713122  0.18575471    -0.30900
H759        H  0.41369576  0.58923582  0.19682205     0.13300
H760        H  0.35785781  0.65377685  0.17332188     0.13800
C761        C  0.11344439  0.90117298  0.18654287    -0.15800
C762        C  0.10883504  0.86578244  0.17319895    -0.30900
H763        H  0.09102790  0.92339460  0.18386187     0.13300
H764        H  0.13242498  0.84460092  0.17444399     0.13800
C765        C  0.13360444  0.87862964  0.31432190    -0.15800
C766        C  0.09644969  0.89073449  0.31662310    -0.30900
H767        H  0.14317420  0.85228264  0.32706075     0.13300
H768        H  0.08577730  0.91428786  0.30091637     0.13800
C769        C  0.42416251  0.69483441  0.06626628    -0.15800
C770        C  0.45052810  0.70345008  0.08944963    -0.30900
H771        H  0.40829855  0.66698067  0.06706584     0.13300
H772        H  0.46379454  0.73249496  0.08950087     0.13800
C773        C  0.45823893  0.69598004  0.41596292    -0.15800
C774        C  0.43137760  0.72410126  0.41572652    -0.30900
H775        H  0.47479941  0.69017381  0.43830903     0.13300
H776        H  0.41289937  0.72848186  0.39427945     0.13800
C777        C  0.22432061  0.53901113  0.32417440    -0.15800
C778        C  0.20255653  0.56336332  0.34183047    -0.30900
H779        H  0.22396550  0.50794418  0.33015436     0.13300
H780        H  0.20342781  0.59473640  0.33653623     0.13800
C781        C  0.20500118  0.56385239  0.16476578    -0.15800
C782        C  0.22442681  0.53898448  0.18400962    -0.30900
H783        H  0.20751119  0.59517666  0.16947498     0.13300
H784        H  0.22321457  0.50791111  0.17874791     0.13800
C785        C  0.29872251  0.93372092  0.15850386    -0.15800
C786        C  0.27682078  0.95930592  0.17463073    -0.30900
H787        H  0.29681354  0.90262399  0.16478590     0.13300
H788        H  0.27885556  0.99026088  0.16835590     0.13800
C789        C  0.37977249  0.88865100  0.06515493    -0.15800
C790        C  0.36102876  0.85384708  0.06224656    -0.30900
H791        H  0.40541491  0.89556013  0.05015296     0.13300
H792        H  0.33323154  0.84841094  0.07467689     0.13800
C793        C  0.28638146  0.96133407  0.33447422    -0.15800
C794        C  0.29193352  0.93744726  0.30902839    -0.30900
H795        H  0.25950806  0.97756054  0.33643251     0.13300
H796        H  0.31780295  0.91916344  0.30783335     0.13800
C797        C  0.38755931  0.88084692  0.43797214    -0.15800
C798        C  0.35353713  0.88613035  0.42259483    -0.30900
H799        H  0.41098210  0.90265495  0.43580641     0.13300
H800        H  0.33132715  0.86294085  0.42279348     0.13800
C801        C  0.11493651  0.59686240  0.43637163    -0.15800
C802        C  0.10856398  0.63432555  0.42790409    -0.30900
H803        H  0.10769153  0.58650691  0.46107901     0.13300
H804        H  0.11592610  0.64560348  0.40359912     0.13800
C805        C  0.12616088  0.60759524  0.06921937    -0.15800
C806        C  0.14126824  0.64420941  0.06691601    -0.30900
H807        H  0.10161944  0.59883741  0.05383152     0.13300
H808        H  0.16799615  0.65240673  0.07968344     0.13800
C809        C  0.06418470  0.79773761  0.06237284    -0.15800
C810        C  0.04124092  0.78824109  0.08786066    -0.30900
H811        H  0.07845081  0.82643770  0.06094500     0.13300
H812        H  0.02929206  0.75863999  0.09019386     0.13800
C813        C  0.06411722  0.80512093  0.41170178    -0.15800
C814        C  0.04157786  0.78266420  0.43093089    -0.30900
H815        H  0.09557951  0.80658865  0.41599639     0.13300
H816        H  0.01034732  0.78108786  0.42641069     0.13800
O817        O  0.44380343  0.99336058  0.84842807    -0.71100
O818        O  0.06515444  0.50028302  0.85166332    -0.71300
O819        O  0.00209658  0.94293880  0.84693240    -0.71200
O820        O  0.50193352  0.55300878  0.84705765    -0.71200
O821        O  0.50015113  0.55682678  0.90025613    -0.71200
O822        O  0.00162815  0.93956115  0.90024186    -0.71200
O823        O  0.06180457  0.49897360  0.90494994    -0.71100
O824        O  0.44643636  0.99436174  0.90173711    -0.71300
V825        V  0.50108848  0.99791198  0.84735836     1.35200
V826        V  0.00741094  0.49487558  0.90184872     1.35200
C827        C  0.42607156  0.99148371  0.87641215     0.78100
C828        C  0.08255353  0.50176755  0.87970783     0.78200
C829        C  0.00338714  0.92219436  0.87236528     0.78000
C830        C  0.49947095  0.57403044  0.87187524     0.78000
O831        O  0.43910256  0.99687329  0.64833404    -0.71100
O832        O  0.05906758  0.50707412  0.64984953    -0.71300
O833        O  0.50082057  0.55652218  0.64994549    -0.71200
O834        O  0.00679827  0.94571488  0.65234252    -0.71200
O835        O  0.00983270  0.94320213  0.59912418    -0.71200
O836        O  0.50052679  0.55802705  0.59658550    -0.71200
O837        O  0.05713934  0.50631292  0.59653482    -0.71100
O838        O  0.44231676  0.00094951  0.59510431    -0.71300
V839        V  0.49628714  0.00351946  0.64964122     1.35200
V840        V  0.00257155  0.50288079  0.59897015     1.35200
C841        C  0.42176571  0.99583908  0.62024232     0.78100
C842        C  0.07725064  0.50844587  0.62204884     0.78200
C843        C  0.49887964  0.57634153  0.62402856     0.78000
C844        C  0.01117484  0.92538100  0.62722261     0.78000
O845        O  0.10685313  0.76251378  0.96199892    -0.71100
O846        O  0.14356193  0.69271556  0.52314899    -0.71300
O847        O  0.14294337  0.69373469  0.96717222    -0.71200
O848        O  0.11250461  0.76506811  0.52399817    -0.71200
O849        O  0.05628638  0.73808535  0.53682752    -0.71200
O850        O  0.08570577  0.66481943  0.97001415    -0.71200
O851        O  0.08659062  0.66568797  0.53334661    -0.71100
O852        O  0.04976708  0.73424789  0.96812415    -0.71300
V853        V  0.12525364  0.73111555  0.99719288     1.35200
V854        V  0.07086645  0.70240012  0.00142540     1.35200
C855        C  0.07131334  0.75924654  0.95368147     0.78100
C856        C  0.12314044  0.66678286  0.53785492     0.78200
C857        C  0.12016115  0.66638760  0.95859764     0.78000
C858        C  0.08162979  0.76503284  0.54104568     0.78000
C859        C  0.32287228  0.95151919  0.86386931     0.87100
C860        C  0.35947656  0.97580890  0.85523695    -0.53100
C861        C  0.38337180  0.98235818  0.88131279     0.10100
C862        C  0.36624146  0.96549106  0.91487449     0.21000
C863        C  0.33829536  0.91436328  0.88074751    -0.53800
C864        C  0.36085560  0.92145457  0.90778735     0.10200
C865        C  0.30142569  0.97347332  0.89125075    -0.53300
C866        C  0.32314504  0.98019522  0.91885324     0.10700
H867        H  0.36793013  0.98295914  0.83004779     0.15300
H868        H  0.38485322  0.97138293  0.93670520     0.01000
H869        H  0.33199335  0.88509326  0.87170150     0.15600
H870        H  0.27004047  0.97851869  0.89043297     0.15400
C871        C  0.32205345  0.94771791  0.63187243     0.87100
C872        C  0.29896391  0.96645190  0.60367473    -0.53100
C873        C  0.32037787  0.97716433  0.57664009     0.10100
C874        C  0.36487102  0.96725042  0.58124143     0.21000
C875        C  0.34212627  0.91281128  0.61603999    -0.53800
C876        C  0.36450672  0.92277414  0.58909962     0.10200
C877        C  0.35562150  0.97601187  0.64054163    -0.53300
C878        C  0.37952183  0.98519234  0.61475509     0.10700
H879        H  0.26727415  0.96551754  0.60348008     0.15300
H880        H  0.38317572  0.97532860  0.55949106     0.01000
H881        H  0.33894950  0.88317950  0.62578620     0.15600
H882        H  0.36298621  0.98324708  0.66578766     0.15400
C883        C  0.17997963  0.54947728  0.63294927     0.87100
C884        C  0.20251030  0.52549653  0.60743761    -0.53100
C885        C  0.18132342  0.51539829  0.58021749     0.10100
C886        C  0.13784530  0.52923282  0.58284186     0.21000
C887        C  0.16400689  0.58426142  0.61339650    -0.53800
C888        C  0.14226110  0.57374146  0.58688577     0.10200
C889        C  0.14383637  0.52512981  0.64298662    -0.53300
C890        C  0.12034860  0.51568974  0.61724190     0.10700
H891        H  0.23409832  0.52221361  0.60864126     0.15300
H892        H  0.11973543  0.52077061  0.56131013     0.01000
H893        H  0.16917394  0.61465434  0.62019792     0.15600
H894        H  0.13491117  0.52088289  0.66848910     0.15400
C895        C  0.17948679  0.55232196  0.86734385     0.87100
C896        C  0.14839069  0.52115945  0.85912803    -0.53100
C897        C  0.12519553  0.51075559  0.88513448     0.10100
C898        C  0.13911816  0.52963409  0.91852490     0.21000
C899        C  0.15662607  0.58521887  0.88319471    -0.53800
C900        C  0.13615978  0.57368921  0.91061680     0.10200
C901        C  0.20455599  0.53625244  0.89559897    -0.53300
C902        C  0.18430584  0.52382404  0.92295937     0.10700
H903        H  0.14077279  0.51407659  0.83390152     0.15300
H904        H  0.12188660  0.52032120  0.94056234     0.01000
H905        H  0.15742224  0.61528303  0.87397519     0.15600
H906        H  0.23578589  0.54156958  0.89582938     0.15400
O907        O  0.22609620  0.54442658  0.96863457    -0.71100
O908        O  0.29959010  0.52045941  0.53463538    -0.71300
O909        O  0.30267128  0.52670478  0.97112823    -0.71200
O910        O  0.22268546  0.53765648  0.53509561    -0.71200
O911        O  0.20182212  0.97933076  0.53257825    -0.71200
O912        O  0.28165282  0.95694013  0.96358178    -0.71200
O913        O  0.27798707  0.95895415  0.53135463    -0.71100
O914        O  0.20465030  0.97459007  0.96375327    -0.71300
V915        V  0.26250490  0.53297693  0.00401517     1.35200
V916        V  0.24342932  0.96609124  0.99770737     1.35200
C917        C  0.20615577  0.51697748  0.95528356     0.78100
C918        C  0.29848083  0.98574045  0.54485047     0.78200
C919        C  0.30109689  0.98542338  0.95087742     0.78000
C920        C  0.20370467  0.50931210  0.54846976     0.78000
O921        O  0.44542156  0.75523967  0.52768587    -0.71100
O922        O  0.40935982  0.82333049  0.96460119    -0.71300
O923        O  0.42292391  0.83036103  0.53189258    -0.71200
O924        O  0.43861021  0.75005782  0.96468311    -0.71200
O925        O  0.37988028  0.72436316  0.96549158    -0.71200
O926        O  0.36383105  0.80553531  0.53120926    -0.71200
O927        O  0.35070181  0.79756253  0.96375008    -0.71100
O928        O  0.38668723  0.73217754  0.51891412    -0.71300
V929        V  0.42273597  0.78566712  0.99739529     1.35200
V930        V  0.36592871  0.76185637  0.99729508     1.35200
C931        C  0.41923239  0.72956821  0.53360003     0.78100
C932        C  0.37470334  0.82355796  0.95364394     0.78200
C933        C  0.38836187  0.82921505  0.54332253     0.78000
C934        C  0.41449712  0.72448448  0.95454642     0.78000
O935        O  0.23034959  0.98511250  0.77903311    -0.71100
O936        O  0.15165137  0.95743628  0.71771983    -0.71300
O937        O  0.15568219  0.96109379  0.78319696    -0.71200
O938        O  0.22716801  0.98199568  0.71359567    -0.71200
O939        O  0.24654828  0.92143613  0.71547973    -0.71200
O940        O  0.17534275  0.90048387  0.78472798    -0.71200
O941        O  0.17177119  0.89710868  0.71956931    -0.71100
O942        O  0.24957641  0.92464336  0.78106915    -0.71300
V943        V  0.19167666  0.97032413  0.74829459     1.35200
V944        V  0.21045199  0.91213152  0.75008583     1.35200
C945        C  0.25266446  0.95949694  0.79103909     0.78100
C946        C  0.14773325  0.92214425  0.70897569     0.78200
C947        C  0.15345510  0.92702240  0.79551729     0.78000
C948        C  0.24935322  0.95547676  0.70310328     0.78000
C949        C  0.05772500  0.82890245  0.88109902     0.87100
C950        C  0.03810966  0.80186410  0.85595351    -0.53100
C951        C  0.02197824  0.82072558  0.82969791     0.10100
C952        C  0.02596500  0.86614973  0.83233519     0.21000
C953        C  0.08706441  0.85355245  0.86088041    -0.53800
C954        C  0.07018492  0.87327191  0.83523725     0.10200
C955        C  0.02656333  0.85803773  0.89227004    -0.54100
C956        C  0.01133606  0.87964922  0.86716920     0.10700
H957        H  0.04106412  0.77014036  0.85697762     0.15300
H958        H  0.01234587  0.88187338  0.81125775     0.01000
H959        H  0.11830314  0.85460549  0.86600950     0.15600
H960        H  0.02316407  0.86613638  0.91792424     0.15400
C961        C  0.04608486  0.81928633  0.61728682     0.87100
C962        C  0.02433860  0.85685398  0.60759124    -0.53100
C963        C  0.02023707  0.88258232  0.63275635     0.10100
C964        C  0.03651498  0.86620655  0.66651438     0.21000
C965        C  0.08476402  0.83320619  0.63246710    -0.53800
C966        C  0.07980306  0.85820827  0.65801699     0.10200
C967        C  0.02439994  0.80078176  0.64640182    -0.53300
C968        C  0.01884897  0.82397162  0.67297002     0.10700
H969        H  0.01645769  0.86397797  0.58235967     0.15300
H970        H  0.03266411  0.88619951  0.68766473     0.01000
H971        H  0.11344370  0.82385533  0.62409250     0.15600
H972        H  0.02657814  0.76955563  0.64992442     0.15400
C973        C  0.45915615  0.67902961  0.61148723     0.87100
C974        C  0.48383258  0.64344904  0.60227023    -0.53100
C975        C  0.49115650  0.61907634  0.62819975     0.10100
C976        C  0.47527235  0.63475013  0.66188752     0.21000
C977        C  0.42251902  0.66171371  0.62868753    -0.53800
C978        C  0.43118132  0.63817659  0.65522268     0.10200
C979        C  0.48084815  0.70018112  0.63921150    -0.53300
C980        C  0.48928125  0.67803209  0.66625257     0.10700
H981        H  0.49018010  0.63567774  0.57695169     0.15300
H982        H  0.48213943  0.61588972  0.68353409     0.01000
H983        H  0.39290717  0.66719448  0.62024869     0.15600
H984        H  0.48096248  0.73175592  0.64026607     0.15400
C985        C  0.46170557  0.67790774  0.87942751     0.87100
C986        C  0.48447206  0.69819493  0.85149750    -0.53100
C987        C  0.49261615  0.67547195  0.82497963     0.10100
C988        C  0.47795831  0.63219166  0.83079104     0.21000
C989        C  0.42531337  0.66100422  0.86238822    -0.53800
C990        C  0.43389888  0.63686920  0.83682088     0.10200
C991        C  0.48545055  0.64221399  0.89024779    -0.53300
C992        C  0.49272348  0.61688880  0.86541373     0.10700
H993        H  0.48498624  0.72979601  0.84960883     0.15300
H994        H  0.48487435  0.61256021  0.80994596     0.01000
H995        H  0.39563343  0.66733542  0.87027545     0.15600
H996        H  0.49105097  0.63508723  0.91592536     0.15400
O997        O  0.48008300  0.79290579  0.78014192    -0.71100
O998        O  0.46566212  0.71606499  0.71199219    -0.71300
O999        O  0.46688987  0.71476979  0.78000705    -0.71200
O1000       O  0.47924586  0.79433858  0.71192316    -0.71200
O1001       O  0.04353613  0.78382951  0.71794717    -0.71200
O1002       O  0.02956747  0.70216983  0.78394194    -0.71200
O1003       O  0.02825615  0.70553862  0.71594570    -0.71100
O1004       O  0.04428264  0.77971613  0.78568334    -0.71300
V1005       V  0.47421236  0.75425397  0.74597357     1.35200
V1006       V  0.03517903  0.74308225  0.75084655     1.35200
C1007       C  0.01591416  0.79811976  0.79842894     0.78100
C1008       C  0.49457131  0.69930830  0.69847848     0.78200
C1009       C  0.49622101  0.69701088  0.79216170     0.78000
C1010       C  0.01455054  0.80189971  0.70554557     0.78000
O1011       O  0.27651192  0.53668546  0.78243432    -0.71100
O1012       O  0.34434813  0.57766891  0.71586431    -0.71300
O1013       O  0.34409477  0.57843859  0.78137132    -0.71200
O1014       O  0.27713874  0.53553450  0.71699506    -0.71200
O1015       O  0.24323034  0.58916421  0.71702465    -0.71200
O1016       O  0.31208985  0.63330813  0.77931352    -0.71200
O1017       O  0.30969314  0.63083991  0.71365855    -0.71100
O1018       O  0.24520533  0.59195160  0.78241702    -0.71300
V1019       V  0.30990386  0.55807275  0.74918203     1.35200
V1020       V  0.27816353  0.61020851  0.74815359     1.35200
C1021       C  0.24932338  0.55759846  0.79367757     0.78100
C1022       C  0.33847606  0.61140144  0.70358629     0.78200
C1023       C  0.34011499  0.61347734  0.79055098     0.78000
C1024       C  0.24879000  0.55507709  0.70612707     0.78000
C1025       C  0.40412530  0.61693780  0.81675871    -0.15800
C1026       C  0.36809257  0.63153876  0.81296984    -0.30900
H1027       H  0.41295412  0.59118656  0.80313319     0.13300
H1028       H  0.36000020  0.65908348  0.82419407     0.13800
C1029       C  0.40206323  0.61704228  0.67593474    -0.15800
C1030       C  0.36497299  0.62894103  0.67893369    -0.30900
H1031       H  0.41250153  0.59306169  0.69130538     0.13300
H1032       H  0.35496392  0.65474565  0.66566315     0.13800
C1033       C  0.11488169  0.90981458  0.68817479    -0.15800
C1034       C  0.11351004  0.87330874  0.67637524    -0.30900
H1035       H  0.09124985  0.93020228  0.68334953     0.13300
H1036       H  0.13836056  0.85391062  0.67946935     0.13800
C1037       C  0.12497502  0.91702515  0.82077592    -0.15800
C1038       C  0.09242787  0.89779441  0.81179463    -0.30900
H1039       H  0.13399326  0.91839891  0.84636115     0.13300
H1040       H  0.08359013  0.89737683  0.78609817     0.13800
C1041       C  0.42629242  0.69882246  0.55851025    -0.15800
C1042       C  0.45121659  0.70659402  0.58318850    -0.30900
H1043       H  0.40936175  0.67161230  0.55820591     0.13300
H1044       H  0.46583047  0.73517994  0.58367232     0.13800
C1045       C  0.45180400  0.70533465  0.90664513    -0.15800
C1046       C  0.42626777  0.69548372  0.93039957    -0.30900
H1047       H  0.46343227  0.73498064  0.90544883     0.13300
H1048       H  0.41177917  0.66688677  0.93052529     0.13800
C1049       C  0.22314027  0.54253133  0.81952508    -0.15800
C1050       C  0.20299302  0.56700340  0.83844112    -0.30900
H1051       H  0.22019827  0.51125474  0.82348806     0.13300
H1052       H  0.20476965  0.59847246  0.83370680     0.13800
C1053       C  0.20386852  0.56366178  0.66115757    -0.15800
C1054       C  0.22352560  0.53916260  0.68048850    -0.30900
H1055       H  0.20611520  0.59513491  0.66527784     0.13300
H1056       H  0.22265079  0.50794935  0.67565728     0.13800
C1057       C  0.29650883  0.93655501  0.66064692    -0.15800
C1058       C  0.27781765  0.96450842  0.67712697    -0.30900
H1059       H  0.29204031  0.90575418  0.66706983     0.13300
H1060       H  0.28352305  0.99495488  0.67072562     0.13800
C1061       C  0.38559837  0.89387641  0.56882622    -0.15800
C1062       C  0.37523818  0.85571316  0.56897565    -0.30900
H1063       H  0.40691740  0.90484150  0.55093105     0.13300
H1064       H  0.35125810  0.84499907  0.58430186     0.13800
C1065       C  0.29775114  0.94184052  0.83485055    -0.15800
C1066       C  0.28045015  0.96983865  0.81704988    -0.30900
H1067       H  0.29266016  0.91112986  0.82893847     0.13300
H1068       H  0.28491067  0.00040885  0.82346588     0.13800
C1069       C  0.36143919  0.85375818  0.93032559    -0.15800
C1070       C  0.37772115  0.88993711  0.92868838    -0.30900
H1071       H  0.33489735  0.84710664  0.91671341     0.13300
H1072       H  0.40205035  0.89746576  0.94473352     0.13800
C1073       C  0.11750920  0.60207018  0.93234861    -0.15800
C1074       C  0.13454156  0.63735411  0.93599519    -0.30900
H1075       H  0.09223627  0.59314913  0.94708556     0.13300
H1076       H  0.16208542  0.64449127  0.92366587     0.13800
C1077       C  0.12451508  0.60265198  0.56466669    -0.15800
C1078       C  0.14155092  0.63787469  0.55920136    -0.30900
H1079       H  0.09767115  0.59442193  0.55199308     0.13300
H1080       H  0.17025668  0.64487901  0.56923252     0.13800
C1081       C  0.07559733  0.79594969  0.56517207    -0.15800
C1082       C  0.05068236  0.79020425  0.59015086    -0.30900
H1083       H  0.09327047  0.82267183  0.56355482     0.13300
H1084       H  0.03506218  0.76228955  0.59221938     0.13800
C1085       C  0.07657817  0.80709372  0.90876329    -0.15800
C1086       C  0.05460662  0.78362585  0.92784592    -0.30900
H1087       H  0.10806557  0.80954282  0.91255115     0.13300
H1088       H  0.02328926  0.78167500  0.92346636     0.13800
O1089       O  0.94683981  0.49147461  0.35006328    -0.71100
O1090       O  0.55453697  0.00038384  0.35043208    -0.71300
O1091       O  0.50744838  0.44193750  0.34605208    -0.71200
O1092       O  0.99820647  0.05360087  0.34509360    -0.71200
O1093       O  0.00008499  0.05626254  0.39838785    -0.71200
O1094       O  0.50429035  0.43785359  0.39926674    -0.71200
O1095       O  0.55076233  0.00062918  0.40371647    -0.71100
O1096       O  0.94848536  0.49024212  0.40343934    -0.71300
V1097       V  0.00403060  0.49623348  0.34993342     1.35200
V1098       V  0.49633216  0.99539360  0.40028987     1.35200
C1099       C  0.92867629  0.48870065  0.37778014     0.78100
C1100       C  0.57164937  0.00308922  0.37848279     0.78200
C1101       C  0.50671061  0.42072472  0.37126642     0.78000
C1102       C  0.99885819  0.07399157  0.37034119     0.78000
O1103       O  0.94578932  0.49159690  0.14909497    -0.71100
O1104       O  0.55685566  0.00732613  0.14843293    -0.71300
O1105       O  0.99423270  0.05024351  0.15318171    -0.71200
O1106       O  0.50968964  0.44210922  0.15246290    -0.71200
O1107       O  0.50875499  0.44050985  0.09913517    -0.71200
O1108       O  0.99406789  0.05387725  0.09988298    -0.71200
O1109       O  0.55537348  0.00592552  0.09512638    -0.71100
O1110       O  0.94913469  0.49451088  0.09583729    -0.71300
V1111       V  0.00289683  0.49854380  0.15044923     1.35200
V1112       V  0.50071592  0.00085777  0.09716964     1.35200
C1113       C  0.92839412  0.49009739  0.12109456     0.78100
C1114       C  0.57525020  0.00906476  0.12076801     0.78200
C1115       C  0.99216584  0.07112868  0.12788003     0.78000
C1116       C  0.51180616  0.42225859  0.12684866     0.78000
O1117       O  0.60605038  0.26436315  0.47876718    -0.71100
O1118       O  0.60589030  0.17018580  0.03151810    -0.71300
O1119       O  0.63248929  0.19058131  0.47421651    -0.71200
O1120       O  0.57928194  0.24392008  0.03308610    -0.71200
O1121       O  0.52001025  0.21980182  0.03458263    -0.71200
O1122       O  0.57424566  0.16488222  0.46807906    -0.71200
O1123       O  0.54677682  0.14566416  0.02980487    -0.71100
O1124       O  0.54931445  0.23925565  0.46597435    -0.71300
V1125       V  0.61222019  0.22151903  0.50838388     1.35200
V1126       V  0.55543682  0.20084441  0.49929647     1.35200
C1127       C  0.57540200  0.26547301  0.46155279     0.78100
C1128       C  0.58155376  0.14387565  0.04033430     0.78200
C1129       C  0.61029698  0.16545105  0.46099770     0.78000
C1130       C  0.54490280  0.24442385  0.04470445     0.78000
C1131       C  0.82051470  0.46407842  0.36531051     0.87100
C1132       C  0.86098815  0.48008230  0.35612776    -0.53100
C1133       C  0.88580127  0.48161160  0.38205281     0.10100
C1134       C  0.86650496  0.46771503  0.41567514     0.21000
C1135       C  0.82703265  0.42425389  0.38203993    -0.53800
C1136       C  0.85147532  0.42607200  0.40816835     0.10200
C1137       C  0.80525694  0.49002835  0.39298788    -0.53300
C1138       C  0.82782535  0.49103010  0.42062330     0.10700
H1139       H  0.86987516  0.48721651  0.33104031     0.15300
H1140       H  0.88636184  0.46926421  0.43724143     0.01000
H1141       H  0.81298937  0.39706310  0.37428053     0.15600
H1142       H  0.77513790  0.49908323  0.39335920     0.15400
C1143       C  0.82470325  0.44831280  0.13291939     0.87100
C1144       C  0.80353885  0.47155040  0.10584648    -0.53100
C1145       C  0.82573124  0.48018621  0.07856719     0.10100
C1146       C  0.86880380  0.46531781  0.08231391     0.21000
C1147       C  0.84073193  0.41245560  0.11540107    -0.53800
C1148       C  0.86322243  0.42097342  0.08851023     0.10200
C1149       C  0.86120990  0.47239852  0.14218212    -0.53300
C1150       C  0.88562619  0.48034535  0.11622137     0.10700
H1151       H  0.77207471  0.47598795  0.10647788     0.15300
H1152       H  0.88762741  0.47223849  0.06061209     0.01000
H1153       H  0.83467831  0.38264014  0.12383768     0.15600
H1154       H  0.86924115  0.47827911  0.16752820     0.15400
C1155       C  0.68297902  0.04059934  0.13214464     0.87100
C1156       C  0.69998264  0.01694768  0.10388814    -0.53100
C1157       C  0.67668775  0.01314684  0.07697070     0.10100
C1158       C  0.63585279  0.03256784  0.08253193     0.21000
C1159       C  0.67160010  0.07968798  0.11586564    -0.53800
C1160       C  0.64624470  0.07550924  0.09034368     0.10200
C1161       C  0.64393189  0.02057997  0.14182422    -0.53300
C1162       C  0.61835521  0.01713608  0.11625485     0.10700
H1163       H  0.73100561  0.01138811  0.10261809     0.15300
H1164       H  0.61587684  0.02921117  0.06119126     0.01000
H1165       H  0.68219078  0.10816824  0.12407153     0.15600
H1166       H  0.63605261  0.01316633  0.16707595     0.15400
C1167       C  0.67019971  0.05244954  0.36700940     0.87100
C1168       C  0.63692536  0.02433940  0.35756443    -0.53100
C1169       C  0.61413466  0.01279885  0.38353348     0.10100
C1170       C  0.62984298  0.02831920  0.41764298     0.21000
C1171       C  0.65037016  0.08533699  0.38557483    -0.53800
C1172       C  0.62978295  0.07308412  0.41251691     0.10200
C1173       C  0.69489075  0.03119188  0.39306685    -0.53300
C1174       C  0.67454430  0.01882055  0.42036359     0.10700
H1175       H  0.62859911  0.01932526  0.33213834     0.15300
H1176       H  0.61255928  0.01827631  0.43943076     0.01000
H1177       H  0.65247577  0.11594217  0.37788737     0.15600
H1178       H  0.72668608  0.03055644  0.39174131     0.15400
O1179       O  0.71659612  0.04022446  0.46463966    -0.71100
O1180       O  0.79475989  0.01729725  0.03428136    -0.71300
O1181       O  0.79379740  0.02420168  0.46500486    -0.71200
O1182       O  0.71792518  0.03629334  0.03212594    -0.71200
O1183       O  0.70785144  0.48062432  0.03370649    -0.71200
O1184       O  0.78605518  0.46490922  0.46392747    -0.71200
O1185       O  0.78405973  0.46032137  0.03351300    -0.71100
O1186       O  0.70849533  0.48157149  0.46271358    -0.71300
V1187       V  0.75426279  0.03024585  0.49887194     1.35200
V1188       V  0.74649096  0.47222071  0.49721449     1.35200
C1189       C  0.69727206  0.01213023  0.45185467     0.78100
C1190       C  0.80432498  0.48759411  0.04654212     0.78200
C1191       C  0.80534594  0.49421517  0.45251593     0.78000
C1192       C  0.69802453  0.00803032  0.04464394     0.78000
O1193       O  0.93622039  0.25007407  0.03215086    -0.71100
O1194       O  0.93462641  0.33821666  0.46769364    -0.71300
O1195       O  0.90824082  0.32359240  0.03173939    -0.71200
O1196       O  0.94994848  0.26130079  0.46226719    -0.71200
O1197       O  0.88669579  0.25478355  0.45711735    -0.71200
O1198       O  0.84910789  0.29885514  0.03271218    -0.71200
O1199       O  0.87157884  0.32887487  0.47210530    -0.71100
O1200       O  0.87713910  0.22526072  0.03156083    -0.71300
V1201       V  0.94094062  0.29607656  0.49769776     1.35200
V1202       V  0.88118483  0.28259315  0.49671636     1.35200
C1203       C  0.91164209  0.22479149  0.04251625     0.78100
C1204       C  0.90029756  0.34894739  0.46104700     0.78200
C1205       C  0.87345430  0.32444034  0.04238164     0.78000
C1206       C  0.92068278  0.24775810  0.44674990     0.78000
O1207       O  0.73960662  0.45332182  0.28718159    -0.71100
O1208       O  0.65722037  0.43996020  0.22710779    -0.71300
O1209       O  0.66598928  0.42488897  0.29081364    -0.71200
O1210       O  0.73172679  0.46721932  0.22311203    -0.71200
O1211       O  0.74831943  0.40801277  0.21024813    -0.71200
O1212       O  0.69213501  0.36768046  0.28332418    -0.71200
O1213       O  0.67557288  0.37967132  0.22010793    -0.71100
O1214       O  0.76439484  0.39722335  0.27354110    -0.71300
V1215       V  0.69915542  0.44536777  0.25688995     1.35200
V1216       V  0.71964852  0.38922458  0.24690892     1.35200
C1217       C  0.76636342  0.42830690  0.29006633     0.78100
C1218       C  0.65130405  0.40682783  0.21459394     0.78200
C1219       C  0.66797777  0.38877448  0.29830747     0.78000
C1220       C  0.75128569  0.44451363  0.20508605     0.78000
C1221       C  0.54181051  0.31629700  0.38224455     0.87100
C1222       C  0.52104495  0.29633549  0.35358507    -0.53100
C1223       C  0.51480601  0.31923911  0.32665200     0.10100
C1224       C  0.52923868  0.36236569  0.33233305     0.21000
C1225       C  0.57963057  0.33335470  0.36679328    -0.53800
C1226       C  0.57284530  0.35801456  0.34061626     0.10200
C1227       C  0.51740280  0.35210436  0.39140545    -0.54100
C1228       C  0.51212945  0.37762011  0.36587038     0.10700
H1229       H  0.51895681  0.26472866  0.35232532     0.15300
H1230       H  0.52375115  0.38198538  0.31086905     0.01000
H1231       H  0.60859551  0.32722639  0.37640180     0.15600
H1232       H  0.51029411  0.35932414  0.41670125     0.15400
C1233       C  0.55109192  0.31912581  0.11352312     0.87100
C1234       C  0.52738336  0.35576406  0.10490508    -0.53100
C1235       C  0.52108545  0.37956970  0.13110120     0.10100
C1236       C  0.53736438  0.36227377  0.16448983     0.21000
C1237       C  0.58807515  0.33436990  0.12991888    -0.53800
C1238       C  0.58118775  0.35643952  0.15671454     0.10200
C1239       C  0.52917984  0.29745608  0.14141351    -0.53300
C1240       C  0.52149812  0.31924590  0.16868444     0.10700
H1241       H  0.52040864  0.36423035  0.07976221     0.15300
H1242       H  0.53212715  0.38065909  0.18644796     0.01000
H1243       H  0.61752862  0.32660915  0.12215974     0.15600
H1244       H  0.52739210  0.26582791  0.14178001     0.15400
C1245       C  0.95834459  0.17683475  0.11745401     0.87100
C1246       C  0.97844797  0.13894097  0.10740618    -0.53100
C1247       C  0.98479145  0.11395576  0.13299775     0.10100
C1248       C  0.97193739  0.13114795  0.16734209     0.21000
C1249       C  0.92116211  0.16395745  0.13615202    -0.53800
C1250       C  0.92829713  0.13991362  0.16238010     0.10200
C1251       C  0.98392710  0.19562435  0.14387188    -0.53300
C1252       C  0.99052925  0.17303164  0.17115940     0.10700
H1253       H  0.98335417  0.13094473  0.08192920     0.15300
H1254       H  0.97771617  0.11142924  0.18868173     0.01000
H1255       H  0.89194013  0.17305148  0.12906941     0.15600
H1256       H  0.98695256  0.22707997  0.14459522     0.15400
C1257       C  0.95944472  0.17312781  0.38541960     0.87100
C1258       C  0.97473063  0.19760449  0.35630139    -0.53100
C1259       C  0.98305562  0.17710076  0.32853876     0.10100
C1260       C  0.97353051  0.13246771  0.33315295     0.21000
C1261       C  0.92277649  0.15232569  0.37164434    -0.53800
C1262       C  0.93012789  0.13149784  0.34354338     0.10200
C1263       C  0.98877397  0.14032018  0.39147089    -0.53300
C1264       C  0.99417590  0.11697522  0.36512647     0.10700
H1265       H  0.97150767  0.22899610  0.35612157     0.15300
H1266       H  0.97972290  0.11525642  0.31068121     0.01000
H1267       H  0.89399461  0.15445813  0.38291422     0.15600
H1268       H  0.99792793  0.13170046  0.41609543     0.15400
O1269       O  0.97719644  0.29435195  0.27945917    -0.71100
O1270       O  0.96490581  0.21384553  0.21429015    -0.71300
O1271       O  0.96168547  0.21680326  0.28214835    -0.71200
O1272       O  0.98047953  0.29187702  0.21167581    -0.71200
O1273       O  0.54140011  0.27879833  0.21483771    -0.71200
O1274       O  0.52065942  0.20075763  0.28249482    -0.71200
O1275       O  0.52266546  0.20179079  0.21426165    -0.71100
O1276       O  0.53874862  0.27823884  0.28276993    -0.71300
V1277       V  0.97229755  0.25391611  0.24687922     1.35200
V1278       V  0.52965337  0.24022834  0.24859978     1.35200
C1279       C  0.51050942  0.29810462  0.29424813     0.78100
C1280       C  0.99415752  0.19546915  0.20294480     0.78200
C1281       C  0.98966855  0.19896313  0.29624036     0.78000
C1282       C  0.51394677  0.29751879  0.20087265     0.78000
O1283       O  0.76533453  0.04380451  0.28031508    -0.71100
O1284       O  0.83491612  0.08907481  0.21850659    -0.71300
O1285       O  0.83628525  0.07904018  0.28350901    -0.71200
O1286       O  0.76330236  0.05523227  0.21533800    -0.71200
O1287       O  0.73535382  0.11145538  0.22321843    -0.71200
O1288       O  0.80868053  0.13583603  0.28922154    -0.71200
O1289       O  0.80710469  0.14581443  0.22380361    -0.71100
O1290       O  0.73867155  0.10068493  0.28781134    -0.71300
V1291       V  0.79940395  0.06785170  0.24947230     1.35200
V1292       V  0.77302728  0.12236572  0.25578408     1.35200
C1293       C  0.74047409  0.06446324  0.29479121     0.78100
C1294       C  0.83360156  0.12505541  0.21114560     0.78200
C1295       C  0.83477735  0.11197289  0.29769523     0.78000
C1296       C  0.73619335  0.07913157  0.20853994     0.78000
C1297       C  0.89983141  0.11146121  0.32356906    -0.15800
C1298       C  0.86279763  0.12404618  0.32302305    -0.30900
H1299       H  0.90926368  0.08973035  0.30591054     0.13300
H1300       H  0.85415857  0.14831256  0.33846504     0.13800
C1301       C  0.89740932  0.12392602  0.18416533    -0.15800
C1302       C  0.86315044  0.14223064  0.18896518    -0.30900
H1303       H  0.90387118  0.09705456  0.19764533     0.13300
H1304       H  0.85756967  0.17077080  0.17791220     0.13800
C1305       C  0.61656783  0.39966833  0.19451349    -0.15800
C1306       C  0.61397140  0.36630286  0.17799266    -0.30900
H1307       H  0.59374619  0.42160836  0.19283878     0.13300
H1308       H  0.63821680  0.34580400  0.17838244     0.13800
C1309       C  0.64108350  0.37038975  0.32210142    -0.15800
C1310       C  0.60328228  0.38051471  0.32241671    -0.30900
H1311       H  0.65087420  0.34444408  0.33528317     0.13300
H1312       H  0.59353032  0.40430369  0.30649378     0.13800
C1313       C  0.92267659  0.19559708  0.06706997    -0.15800
C1314       C  0.94997535  0.20415760  0.08945724    -0.30900
H1315       H  0.90614596  0.16814852  0.06857762     0.13300
H1316       H  0.96431932  0.23271167  0.08892428     0.13800
C1317       C  0.95301663  0.19695215  0.41579658    -0.15800
C1318       C  0.92556809  0.22443723  0.41715097    -0.30900
H1319       H  0.97151784  0.19184047  0.43716694     0.13300
H1320       H  0.90521030  0.22840526  0.39689455     0.13800
C1321       C  0.71503244  0.04669782  0.31986809    -0.15800
C1322       C  0.69298729  0.06915313  0.33870502    -0.30900
H1323       H  0.71585123  0.01540183  0.32468167     0.13300
H1324       H  0.69268491  0.10072373  0.33432904     0.13800
C1325       C  0.71191020  0.04562603  0.15963705    -0.15800
C1326       C  0.70562407  0.07025587  0.18436879    -0.30900
H1327       H  0.74005749  0.03155652  0.15766953     0.13300
H1328       H  0.67849696  0.08665880  0.18534614     0.13800
C1329       C  0.79900456  0.43517992  0.16116567    -0.15800
C1330       C  0.77754812  0.45980638  0.17887126    -0.30900
H1331       H  0.79686341  0.40387996  0.16655611     0.13300
H1332       H  0.77966664  0.49089048  0.17343483     0.13800
C1333       C  0.87893180  0.39006850  0.06702015    -0.15800
C1334       C  0.86056362  0.35497694  0.06476496    -0.30900
H1335       H  0.90429608  0.39692465  0.05167314     0.13300
H1336       H  0.83299972  0.34942901  0.07750091     0.13800
C1337       C  0.79307965  0.46103045  0.33724217    -0.15800
C1338       C  0.79805732  0.43491515  0.31326388    -0.30900
H1339       H  0.76664423  0.47805388  0.33837496     0.13300
H1340       H  0.82357355  0.41609391  0.31283401     0.13800
C1341       C  0.89401196  0.38440125  0.44133503    -0.15800
C1342       C  0.85893142  0.39117127  0.42825056    -0.30900
H1343       H  0.91845639  0.40456649  0.43688074     0.13300
H1344       H  0.83545730  0.36941694  0.43067983     0.13800
C1345       C  0.61103031  0.10107991  0.43476787    -0.15800
C1346       C  0.62682223  0.13707028  0.43862503    -0.30900
H1347       H  0.58555807  0.09162968  0.44903797     0.13300
H1348       H  0.65466344  0.14498920  0.42715786     0.13800
C1349       C  0.63103161  0.10971311  0.07248177    -0.15800
C1350       C  0.59429033  0.11075908  0.06088563    -0.30900
H1351       H  0.65044620  0.13507884  0.06960783     0.13300
H1352       H  0.57403657  0.08639425  0.06533732     0.13800
C1353       C  0.53389084  0.27325454  0.06926520    -0.15800
C1354       C  0.56128951  0.29352760  0.08521322    -0.30900
H1355       H  0.50332356  0.27746737  0.07521418     0.13300
H1356       H  0.59204684  0.28939072  0.07909890     0.13800
C1357       C  0.54816259  0.28793961  0.41003862    -0.15800
C1358       C  0.57035733  0.29590672  0.43624648    -0.30900
H1359       H  0.53492235  0.25895550  0.40800169     0.13300
H1360       H  0.58614908  0.32369096  0.43806478     0.13800
O1361       O  0.95033032  0.49191364  0.85162571    -0.71100
O1362       O  0.55853029  0.00221922  0.84800987    -0.71300
O1363       O  0.50676550  0.44419338  0.84924418    -0.71200
O1364       O  0.99527520  0.05170769  0.84634725    -0.71200
O1365       O  0.99495978  0.05432844  0.89963510    -0.71200
O1366       O  0.50896015  0.44198441  0.90255301    -0.71200
O1367       O  0.55574467  0.99661937  0.90115081    -0.71100
O1368       O  0.95296685  0.49067298  0.90493733    -0.71300
V1369       V  0.00774339  0.49596731  0.85066605     1.35200
V1370       V  0.50108661  0.99578610  0.89853660     1.35200
C1371       C  0.93252496  0.48970071  0.87959990     0.78100
C1372       C  0.57629908  0.00118614  0.87589019     0.78200
C1373       C  0.50958209  0.42403150  0.87485342     0.78000
C1374       C  0.99368259  0.07215311  0.87161127     0.78000
O1375       O  0.94442404  0.49744656  0.64869205    -0.71100
O1376       O  0.55362071  0.00964713  0.64898259    -0.71300
O1377       O  0.99506884  0.05461222  0.65160197    -0.71200
O1378       O  0.50690847  0.44763185  0.65334808    -0.71200
O1379       O  0.50827036  0.44337619  0.60014826    -0.71200
O1380       O  0.99574865  0.05765090  0.59828541    -0.71200
O1381       O  0.55132988  0.01034848  0.59566088    -0.71100
O1382       O  0.94819385  0.49944590  0.59541780    -0.71300
V1383       V  0.00167725  0.50231143  0.65015985     1.35200
V1384       V  0.49673640  0.00558371  0.59846961     1.35200
C1385       C  0.92727774  0.49643108  0.62054343     0.78100
C1386       C  0.57161198  0.01212415  0.62110487     0.78200
C1387       C  0.99267123  0.07515026  0.62611666     0.78000
C1388       C  0.50899157  0.42640729  0.62858468     0.78000
O1389       O  0.57966425  0.24629594  0.96772176    -0.71100
O1390       O  0.62066586  0.17955318  0.53806266    -0.71300
O1391       O  0.60545765  0.17306808  0.96620218    -0.71200
O1392       O  0.59413751  0.25299320  0.54285809    -0.71200
O1393       O  0.53441307  0.23569827  0.53059185    -0.71200
O1394       O  0.54472601  0.15266322  0.96441464    -0.71200
O1395       O  0.55990185  0.16102442  0.53188679    -0.71100
O1396       O  0.51906871  0.22605513  0.96929860    -0.71300
V1397       V  0.59140752  0.20793325  0.99976871     1.35200
V1398       V  0.53372171  0.18649893  0.99965683     1.35200
C1399       C  0.54490443  0.24903223  0.95757137     0.78100
C1400       C  0.59317758  0.15535478  0.54440102     0.78200
C1401       C  0.57938441  0.15130900  0.95378515     0.78000
C1402       C  0.55771103  0.25595741  0.54769927     0.78000
C1403       C  0.82908883  0.45225116  0.86720270     0.87100
C1404       C  0.86577225  0.47613781  0.85837167    -0.53100
C1405       C  0.88940007  0.48308820  0.88453396     0.10100
C1406       C  0.87136168  0.46780589  0.91839710     0.21000
C1407       C  0.84407104  0.41589979  0.88502152    -0.53800
C1408       C  0.86561024  0.42371911  0.91225680     0.10200
C1409       C  0.80697725  0.47512240  0.89363932    -0.53300
C1410       C  0.82815250  0.48277221  0.92140775     0.10700
H1411       H  0.87484275  0.48187663  0.83309167     0.15300
H1412       H  0.88955861  0.47424670  0.94036214     0.01000
H1413       H  0.83820627  0.38628258  0.87650689     0.15600
H1414       H  0.77559041  0.47989597  0.89225368     0.15400
C1415       C  0.82831724  0.44907344  0.63199195     0.87100
C1416       C  0.80432810  0.46758370  0.60433674    -0.53100
C1417       C  0.82515014  0.47948710  0.57724874     0.10100
C1418       C  0.86991999  0.47065137  0.58130924     0.21000
C1419       C  0.84902051  0.41510980  0.61536244    -0.53800
C1420       C  0.87095401  0.42609446  0.58847751     0.10200
C1421       C  0.86111100  0.47807824  0.64081362    -0.53300
C1422       C  0.88465480  0.48804884  0.61498157     0.10700
H1423       H  0.77282122  0.46462989  0.60421646     0.15300
H1424       H  0.88766078  0.47982684  0.55951963     0.01000
H1425       H  0.84557090  0.38522732  0.62431334     0.15600
H1426       H  0.86888010  0.48442597  0.66615083     0.15400
C1427       C  0.68023979  0.03753522  0.63343619     0.87100
C1428       C  0.69618777  0.01441160  0.60448690    -0.53100
C1429       C  0.67338288  0.01374676  0.57704841     0.10100
C1430       C  0.63357089  0.03532927  0.58319767     0.21000
C1431       C  0.67175237  0.07800100  0.61855818    -0.53800
C1432       C  0.64684893  0.07699073  0.59271640     0.10200
C1433       C  0.64024716  0.01942500  0.64212699    -0.53300
C1434       C  0.61484092  0.01902517  0.61641670     0.10700
H1435       H  0.72664826  0.00758016  0.60331237     0.15300
H1436       H  0.61355819  0.03459380  0.56169970     0.01000
H1437       H  0.68452635  0.10523076  0.62759333     0.15600
H1438       H  0.63183344  0.01078797  0.66700349     0.15400
C1439       C  0.67252631  0.05469843  0.86797248     0.87100
C1440       C  0.64154396  0.02477921  0.85652901    -0.53100
C1441       C  0.61914143  0.00950217  0.88143897     0.10100
C1442       C  0.63352062  0.02293408  0.91646281     0.21000
C1443       C  0.64970199  0.08424881  0.88829167    -0.53800
C1444       C  0.62912175  0.06747165  0.91375633     0.10200
C1445       C  0.69844703  0.03364538  0.89326707    -0.53300
C1446       C  0.67873662  0.01754396  0.91949988     0.10700
H1447       H  0.63340433  0.02202626  0.83080655     0.15300
H1448       H  0.61696723  0.00949333  0.93739682     0.01000
H1449       H  0.65066892  0.11567132  0.88344356     0.15600
H1450       H  0.73022065  0.03603609  0.89253195     0.15400
O1451       O  0.72108381  0.03762310  0.96412978    -0.71100
O1452       O  0.79308713  0.02269756  0.53308888    -0.71300
O1453       O  0.79708053  0.01917278  0.96589502    -0.71200
O1454       O  0.71493673  0.03872309  0.53252617    -0.71200
O1455       O  0.70648336  0.47709953  0.53052714    -0.71200
O1456       O  0.78439441  0.46140924  0.96542706    -0.71200
O1457       O  0.78351983  0.46035824  0.53167398    -0.71100
O1458       O  0.70789842  0.48138882  0.96565542    -0.71300
V1459       V  0.75734457  0.02639073  0.99916841     1.35200
V1460       V  0.74651401  0.47212006  0.99955839     1.35200
C1461       C  0.70087453  0.01021673  0.95119023     0.78100
C1462       C  0.80304022  0.48763332  0.54547442     0.78200
C1463       C  0.80546486  0.48897466  0.95305860     0.78000
C1464       C  0.69564288  0.00981836  0.54480524     0.78000
O1465       O  0.94949952  0.25511531  0.52826660    -0.71100
O1466       O  0.90835558  0.32405977  0.96700500    -0.71300
O1467       O  0.93346134  0.33164104  0.53279453    -0.71200
O1468       O  0.93621098  0.25049577  0.96639066    -0.71200
O1469       O  0.87669478  0.22681982  0.96655936    -0.71200
O1470       O  0.87309670  0.31033304  0.53599798    -0.71200
O1471       O  0.84869835  0.30057223  0.96741777    -0.71100
O1472       O  0.88907915  0.23576347  0.52167453    -0.71300
V1473       V  0.92119830  0.28637764  0.99931531     1.35200
V1474       V  0.86403794  0.26338488  0.99953590     1.35200
C1475       C  0.92204701  0.23120601  0.53521544     0.78100
C1476       C  0.87331518  0.32599135  0.95741725     0.78200
C1477       C  0.90017037  0.33235217  0.54648273     0.78000
C1478       C  0.91135969  0.22590573  0.95576258     0.78000
O1479       O  0.73338307  0.47044932  0.78289444    -0.71100
O1480       O  0.66451858  0.42743712  0.72012563    -0.71300
O1481       O  0.66581849  0.42890691  0.78536959    -0.71200
O1482       O  0.73243328  0.46848455  0.71742349    -0.71200
O1483       O  0.76313128  0.41286504  0.71748538    -0.71200
O1484       O  0.70013912  0.37547910  0.78745942    -0.71200
O1485       O  0.69613894  0.37230315  0.72215242    -0.71100
O1486       O  0.76672698  0.41647312  0.78256234    -0.71300
V1487       V  0.69967793  0.44786391  0.75144805     1.35200
V1488       V  0.73095260  0.39541746  0.75237707     1.35200
C1489       C  0.76166278  0.45062058  0.79346215     0.78100
C1490       C  0.66802581  0.39224361  0.71129538     0.78200
C1491       C  0.67155338  0.39513119  0.79756639     0.78000
C1492       C  0.75900834  0.44702840  0.70587621     0.78000
C1493       C  0.55205612  0.32327067  0.88690721     0.87100
C1494       C  0.53209029  0.30048023  0.85915255    -0.53100
C1495       C  0.52271254  0.32219824  0.83202490     0.10100
C1496       C  0.53416853  0.36637815  0.83635661     0.21000
C1497       C  0.58775314  0.34278796  0.87029062    -0.53800
C1498       C  0.57834307  0.36540716  0.84348530     0.10200
C1499       C  0.52526751  0.35731390  0.89585690    -0.54100
C1500       C  0.51716663  0.38135975  0.86999402     0.10700
H1501       H  0.53129416  0.26872201  0.85916702     0.15300
H1502       H  0.52658039  0.38477380  0.81461114     0.01000
H1503       H  0.61740074  0.33935756  0.87941491     0.15600
H1504       H  0.51873367  0.36500503  0.92117082     0.15400
C1505       C  0.55353453  0.32696523  0.61950072     0.87100
C1506       C  0.52571239  0.35987438  0.60952460    -0.53100
C1507       C  0.51573242  0.38356144  0.63484904     0.10100
C1508       C  0.53155742  0.36860807  0.66919042     0.21000
C1509       C  0.58739056  0.34764446  0.63685399    -0.53800
C1510       C  0.57600863  0.36901077  0.66334612     0.10200
C1511       C  0.53351043  0.30293779  0.64687972    -0.53300
C1512       C  0.52179226  0.32379691  0.67361033     0.10700
H1513       H  0.52043425  0.36769810  0.58393165     0.15300
H1514       H  0.52233853  0.38640596  0.69056795     0.01000
H1515       H  0.61769539  0.34542562  0.62884037     0.15600
H1516       H  0.53595503  0.27134639  0.64752713     0.15400
C1517       C  0.95829186  0.18075305  0.61394897     0.87100
C1518       C  0.97898093  0.14278583  0.60486758    -0.53100
C1519       C  0.98388842  0.11785905  0.63076310     0.10100
C1520       C  0.96917553  0.13522853  0.66455412     0.21000
C1521       C  0.92003943  0.16789091  0.63111003    -0.53800
C1522       C  0.92570827  0.14390174  0.65775915     0.10200
C1523       C  0.98252052  0.19965781  0.64148438    -0.53300
C1524       C  0.98782907  0.17709335  0.66899259     0.10700
H1525       H  0.98580080  0.13488325  0.57966131     0.15300
H1526       H  0.97364618  0.11553858  0.68614653     0.01000
H1527       H  0.89129899  0.17680752  0.62263833     0.15600
H1528       H  0.98815318  0.23087384  0.64152183     0.15400
C1529       C  0.95854931  0.17708872  0.88110482     0.87100
C1530       C  0.98255473  0.19694457  0.85370800    -0.53100
C1531       C  0.99031062  0.17439305  0.82701132     0.10100
C1532       C  0.97367767  0.13177463  0.83181563     0.21000
C1533       C  0.92181447  0.16203054  0.86337069    -0.53800
C1534       C  0.92975983  0.13805463  0.83745811     0.10200
C1535       C  0.98058954  0.14009373  0.89151286    -0.53300
C1536       C  0.98739692  0.11519220  0.86621126     0.10700
H1537       H  0.98419252  0.22854392  0.85217304     0.15300
H1538       H  0.98008728  0.11240403  0.81068417     0.01000
H1539       H  0.89236319  0.16944098  0.87111954     0.15600
H1540       H  0.98561690  0.13211892  0.91709031     0.15400
O1541       O  0.98479949  0.29268843  0.78382972    -0.71100
O1542       O  0.96626200  0.21756358  0.71441684    -0.71300
O1543       O  0.96722187  0.21530428  0.78234656    -0.71200
O1544       O  0.98374394  0.29534084  0.71556075    -0.71200
O1545       O  0.54400592  0.28260422  0.71872758    -0.71200
O1546       O  0.52661427  0.20473865  0.78718555    -0.71200
O1547       O  0.52630467  0.20539523  0.71911066    -0.71100
O1548       O  0.54442368  0.28192218  0.78693941    -0.71300
V1549       V  0.97674354  0.25490902  0.74898779     1.35200
V1550       V  0.53411081  0.24404355  0.75300609     1.35200
C1551       C  0.51649223  0.30083784  0.79988785     0.78100
C1552       C  0.99412640  0.19872158  0.70119961     0.78200
C1553       C  0.99555099  0.19620477  0.79462820     0.78000
C1554       C  0.51589447  0.30163305  0.70593077     0.78000
O1555       O  0.76610456  0.04954541  0.78010422    -0.71100
O1556       O  0.83208933  0.09150781  0.71390492    -0.71300
O1557       O  0.83599174  0.08691157  0.77898863    -0.71200
O1558       O  0.76150340  0.05510909  0.71498927    -0.71200
O1559       O  0.73108082  0.11031694  0.72138794    -0.71200
O1560       O  0.80786327  0.14384584  0.78132602    -0.71200
O1561       O  0.80164823  0.14717301  0.71589395    -0.71100
O1562       O  0.73877657  0.10635508  0.78625649    -0.71300
V1563       V  0.79831371  0.07182143  0.74703362     1.35200
V1564       V  0.77039732  0.12587629  0.75101529     1.35200
C1565       C  0.74153869  0.07058850  0.79461079     0.78100
C1566       C  0.82898835  0.12660494  0.70419676     0.78200
C1567       C  0.83484448  0.12133391  0.79037482     0.78000
C1568       C  0.73276992  0.07699269  0.70843813     0.78000
C1569       C  0.89943041  0.11990867  0.81659160    -0.15800
C1570       C  0.86414811  0.13620091  0.81324426    -0.30900
H1571       H  0.90715886  0.09444733  0.80214381     0.13300
H1572       H  0.85742200  0.16352934  0.82543142     0.13800
C1573       C  0.89376864  0.12717388  0.67837162    -0.15800
C1574       C  0.85804301  0.14338585  0.68104228    -0.30900
H1575       H  0.90093212  0.10168900  0.69340879     0.13300
H1576       H  0.85126686  0.17065180  0.66834683     0.13800
C1577       C  0.63988009  0.37419346  0.68931807    -0.15800
C1578       C  0.60408038  0.38903518  0.68482473    -0.30900
H1579       H  0.64804758  0.34653985  0.67827283     0.13300
H1580       H  0.59458423  0.41460917  0.69835569     0.13800
C1581       C  0.64493413  0.37756870  0.82190799    -0.15800
C1582       C  0.60708919  0.38751255  0.82317464    -0.30900
H1583       H  0.65563812  0.35266157  0.83595392     0.13300
H1584       H  0.59613101  0.41028649  0.80680588     0.13800
C1585       C  0.92805998  0.20055494  0.56024837    -0.15800
C1586       C  0.95226624  0.20820454  0.58541652    -0.30900
H1587       H  0.91057454  0.17369191  0.55984637     0.13300
H1588       H  0.96694662  0.23649890  0.58631240     0.13800
C1589       C  0.94959316  0.20469341  0.90863293    -0.15800
C1590       C  0.92230008  0.19653893  0.93146643    -0.30900
H1591       H  0.96353375  0.23340569  0.90830214     0.13300
H1592       H  0.90584952  0.16904061  0.93078740     0.13800
C1593       C  0.71715742  0.05295662  0.82058912    -0.15800
C1594       C  0.69498750  0.07426663  0.84045460    -0.30900
H1595       H  0.71804017  0.02145218  0.82442594     0.13300
H1596       H  0.69378541  0.10596559  0.83721300     0.13800
C1597       C  0.70840191  0.04045578  0.66142219    -0.15800
C1598       C  0.70164149  0.06503159  0.68608856    -0.30900
H1599       H  0.73656370  0.02661676  0.65920211     0.13300
H1600       H  0.67412987  0.08081467  0.68708615     0.13800
C1601       C  0.80407746  0.43560219  0.66076982    -0.15800
C1602       C  0.78456996  0.46106991  0.67928216    -0.30900
H1603       H  0.80163194  0.40428355  0.66601257     0.13300
H1604       H  0.78764993  0.49222439  0.67450027     0.13800
C1605       C  0.89202855  0.39817573  0.56723801    -0.15800
C1606       C  0.89152944  0.35924363  0.57295660    -0.30900
H1607       H  0.90486857  0.40958795  0.54450173     0.13300
H1608       H  0.87740286  0.34636482  0.59440329     0.13800
C1609       C  0.80519915  0.44011158  0.83851016    -0.15800
C1610       C  0.78712020  0.46575606  0.81920715    -0.30900
H1611       H  0.80160998  0.40884086  0.83389209     0.13300
H1612       H  0.78923465  0.49688946  0.82420917     0.13800
C1613       C  0.86066955  0.35770327  0.93596000    -0.15800
C1614       C  0.88021015  0.39217885  0.93380754    -0.30900
H1615       H  0.83274754  0.35348355  0.92364549     0.13300
H1616       H  0.90592689  0.39779938  0.94884564     0.13800
C1617       C  0.60645377  0.09023264  0.93729641    -0.15800
C1618       C  0.59007815  0.12409832  0.92841901    -0.30900
H1619       H  0.60544628  0.08026804  0.96280948     0.13300
H1620       H  0.58975349  0.13419198  0.90298028     0.13800
C1621       C  0.63664379  0.11324661  0.57540426    -0.15800
C1622       C  0.60063736  0.11987937  0.56395638    -0.30900
H1623       H  0.65940233  0.13577516  0.57320417     0.13300
H1624       H  0.57728258  0.09821770  0.56744587     0.13800
C1625       C  0.54288638  0.28233683  0.57282236    -0.15800
C1626       C  0.56772427  0.30265565  0.59163132    -0.30900
H1627       H  0.51157258  0.28516199  0.57632614     0.13300
H1628       H  0.59916371  0.30066617  0.58748511     0.13800
C1629       C  0.56257957  0.29791894  0.91571924    -0.15800
C1630       C  0.53480448  0.27732847  0.93184061    -0.30900
H1631       H  0.59323457  0.29526069  0.92259997     0.13300
H1632       H  0.50442110  0.27956997  0.92421697     0.13800
O1633       O  0.94233905  0.99658972  0.34932087    -0.71100
O1634       O  0.56168154  0.50110489  0.34975673    -0.71300
O1635       O  0.50096603  0.94097664  0.34700863    -0.71200
O1636       O  0.00055225  0.55058539  0.34770610    -0.71200
O1637       O  0.99896405  0.55180412  0.40104758    -0.71200
O1638       O  0.50109395  0.93816758  0.40034580    -0.71200
O1639       O  0.55915423  0.49554371  0.40292715    -0.71100
O1640       O  0.94523687  0.99870549  0.40257703    -0.71300
V1641       V  0.99972927  0.99929053  0.34831679     1.35200
V1642       V  0.50461916  0.49548286  0.40022168     1.35200
C1643       C  0.92465820  0.99649796  0.37733073     0.78100
C1644       C  0.57941194  0.50099838  0.37767360     0.78200
C1645       C  0.50270685  0.92054437  0.37257414     0.78000
C1646       C  0.99784785  0.57022741  0.37328057     0.78000
O1647       O  0.94070060  0.99072024  0.14958501    -0.71100
O1648       O  0.56225918  0.50196707  0.14825835    -0.71300
O1649       O  0.99745827  0.55283936  0.15373029    -0.71200
O1650       O  0.50461613  0.94661722  0.15201608    -0.71200
O1651       O  0.50503552  0.94360931  0.09872981    -0.71200
O1652       O  0.99921630  0.55732025  0.10049447    -0.71200
O1653       O  0.55851209  0.50213900  0.09497420    -0.71100
O1654       O  0.94336442  0.99277910  0.09629137    -0.71300
V1655       V  0.99819555  0.99578868  0.15009442     1.35200
V1656       V  0.50418512  0.49780236  0.09880525     1.35200
C1657       C  0.92292365  0.98963308  0.12166661     0.78100
C1658       C  0.57936748  0.50408858  0.12007223     0.78200
C1659       C  0.99693113  0.57421181  0.12858018     0.78000
C1660       C  0.50613302  0.92602828  0.12688354     0.78000
O1661       O  0.60925357  0.76120764  0.47557336    -0.71100
O1662       O  0.62001300  0.69572440  0.03279354    -0.71300
O1663       O  0.62266664  0.68561419  0.46235278    -0.71200
O1664       O  0.58021149  0.76198359  0.03089273    -0.71200
O1665       O  0.52527081  0.72886830  0.03182444    -0.71200
O1666       O  0.56141904  0.66733543  0.46644871    -0.71200
O1667       O  0.56585167  0.66120166  0.03264820    -0.71100
O1668       O  0.54773236  0.74433613  0.47142673    -0.71300
V1669       V  0.61663283  0.71497592  0.50117178     1.35200
V1670       V  0.55648376  0.70295355  0.50179104     1.35200
C1671       C  0.57582762  0.76705610  0.46335451     0.78100
C1672       C  0.60022737  0.66677509  0.04329684     0.78200
C1673       C  0.59428327  0.66493575  0.45228618     0.78000
C1674       C  0.54623779  0.75674548  0.04251841     0.78000
C1675       C  0.82425544  0.95210508  0.36745989     0.87100
C1676       C  0.85835547  0.97914376  0.35721733    -0.53100
C1677       C  0.88162668  0.98994601  0.38274339     0.10100
C1678       C  0.86557428  0.97509869  0.41723753     0.21000
C1679       C  0.84310424  0.91850012  0.38671032    -0.53800
C1680       C  0.86527727  0.93045090  0.41273927     0.10200
C1681       C  0.80041153  0.97408499  0.39326629    -0.53300
C1682       C  0.82111238  0.98555601  0.42028564     0.10700
H1683       H  0.86691446  0.98353754  0.33164007     0.15300
H1684       H  0.88321138  0.98502180  0.43860623     0.01000
H1685       H  0.83829034  0.88794629  0.38042667     0.15600
H1686       H  0.76862979  0.97535338  0.39225570     0.15400
C1687       C  0.82268090  0.94317971  0.13249161     0.87100
C1688       C  0.79920871  0.96331877  0.10520321    -0.53100
C1689       C  0.82039988  0.97512421  0.07823606     0.10100
C1690       C  0.86491347  0.96518753  0.08229054     0.21000
C1691       C  0.84250605  0.90914313  0.11509947    -0.53800
C1692       C  0.86449304  0.92056549  0.08847523     0.10200
C1693       C  0.85634467  0.97098065  0.14197362    -0.53300
C1694       C  0.88011888  0.98120518  0.11634228     0.10700
H1695       H  0.76755444  0.96178248  0.10517161     0.15300
H1696       H  0.88297626  0.97435288  0.06068521     0.01000
H1697       H  0.83971862  0.87885552  0.12348123     0.15600
H1698       H  0.86421285  0.97646844  0.16743127     0.15400
C1699       C  0.67696016  0.55298749  0.13119067     0.87100
C1700       C  0.70216989  0.53356367  0.10476775    -0.53100
C1701       C  0.68205414  0.52164374  0.07755682     0.10100
C1702       C  0.63709810  0.52970843  0.08067598     0.21000
C1703       C  0.65609712  0.58608978  0.11320536    -0.53800
C1704       C  0.63516648  0.57418835  0.08646481     0.10200
C1705       C  0.64447845  0.52360486  0.14049330    -0.53300
C1706       C  0.62190385  0.51262629  0.11464333     0.10700
H1707       H  0.73396694  0.53334656  0.10603489     0.15300
H1708       H  0.62004741  0.51982459  0.05896401     0.01000
H1709       H  0.65691072  0.61599678  0.12208208     0.15600
H1710       H  0.63608610  0.51768962  0.16591686     0.15400
C1711       C  0.67446070  0.55590826  0.36644538     0.87100
C1712       C  0.64388645  0.52462617  0.35729835    -0.53100
C1713       C  0.62154314  0.51194175  0.38308820     0.10100
C1714       C  0.63522965  0.52967177  0.41695843     0.21000
C1715       C  0.65135736  0.58771967  0.38392162    -0.53800
C1716       C  0.63058097  0.57413659  0.41067485     0.10200
C1717       C  0.70017005  0.53850083  0.39354979    -0.53300
C1718       C  0.68059613  0.52444679  0.42050870     0.10700
H1719       H  0.63626780  0.51849632  0.33188788     0.15300
H1720       H  0.61856544  0.51857898  0.43874252     0.01000
H1721       H  0.65301082  0.61829982  0.37631460     0.15600
H1722       H  0.73161311  0.54254566  0.39313953     0.15400
O1723       O  0.72275057  0.54363412  0.46573418    -0.71100
O1724       O  0.80143908  0.52177041  0.03404113    -0.71300
O1725       O  0.79985330  0.52717681  0.46592808    -0.71200
O1726       O  0.72544819  0.54202472  0.03331794    -0.71200
O1727       O  0.70264877  0.97429991  0.03229876    -0.71200
O1728       O  0.77894362  0.96212907  0.46424683    -0.71200
O1729       O  0.77920115  0.95546553  0.03245120    -0.71100
O1730       O  0.70174497  0.97814186  0.46436924    -0.71300
V1731       V  0.76042876  0.53178784  0.49972322     1.35200
V1732       V  0.74074964  0.97050899  0.49833249     1.35200
C1733       C  0.70357677  0.51622789  0.45173587     0.78100
C1734       C  0.79861302  0.98288350  0.04620484     0.78200
C1735       C  0.79840709  0.99080163  0.45197591     0.78000
C1736       C  0.70477679  0.51453644  0.04613648     0.78000
O1737       O  0.95557231  0.75858245  0.03594818    -0.71100
O1738       O  0.93402423  0.83626618  0.46613706    -0.71300
O1739       O  0.92806198  0.83226572  0.03457028    -0.71200
O1740       O  0.96422561  0.76387783  0.47086202    -0.71200
O1741       O  0.90646249  0.73991740  0.46002014    -0.71200
O1742       O  0.87144964  0.80376915  0.02666986    -0.71200
O1743       O  0.87584248  0.81133239  0.45771653    -0.71100
O1744       O  0.90093830  0.73165956  0.01960664    -0.71300
V1745       V  0.94048211  0.79863724  0.50032861     1.35200
V1746       V  0.88514906  0.77398854  0.49122052     1.35200
C1747       C  0.93040963  0.73101774  0.03821442     0.78100
C1748       C  0.90193301  0.83661410  0.45076071     0.78200
C1749       C  0.89190048  0.82931882  0.04116649     0.78000
C1750       C  0.94306238  0.74007953  0.45522932     0.78000
O1751       O  0.72715551  0.96405746  0.28309046    -0.71100
O1752       O  0.65878329  0.92067383  0.22009698    -0.71300
O1753       O  0.65990696  0.92217451  0.28551256    -0.71200
O1754       O  0.72624428  0.96206452  0.21757395    -0.71200
O1755       O  0.75798788  0.90703156  0.21832015    -0.71200
O1756       O  0.69383086  0.86848885  0.28720853    -0.71200
O1757       O  0.69113641  0.86599312  0.22157763    -0.71100
O1758       O  0.76036228  0.90999304  0.28387956    -0.71300
V1759       V  0.69367064  0.94124980  0.25160762     1.35200
V1760       V  0.72525615  0.88900135  0.25270889     1.35200
C1761       C  0.75516373  0.94434677  0.29435424     0.78100
C1762       C  0.66296100  0.88581839  0.21056172     0.78200
C1763       C  0.66541850  0.88824278  0.29750075     0.78000
C1764       C  0.75318682  0.94090433  0.20627168     0.78000
C1765       C  0.54157768  0.81776609  0.38423820     0.87100
C1766       C  0.52226221  0.79719686  0.35515842    -0.53100
C1767       C  0.51455478  0.82010613  0.32843965     0.10100
C1768       C  0.52774668  0.86341088  0.33423713     0.21000
C1769       C  0.57893849  0.83605524  0.36904520    -0.53800
C1770       C  0.57144278  0.86029099  0.34267293     0.10200
C1771       C  0.51592690  0.85272228  0.39318862    -0.54100
C1772       C  0.51001624  0.87791433  0.36760524     0.10700
H1773       H  0.52558491  0.76600050  0.35243191     0.15300
H1774       H  0.52185884  0.88285472  0.31273700     0.01000
H1775       H  0.60808158  0.83068835  0.37861368     0.15600
H1776       H  0.50824385  0.85972066  0.41841758     0.15400
C1777       C  0.54673963  0.82521700  0.11588066     0.87100
C1778       C  0.52076648  0.85972487  0.10659230    -0.53100
C1779       C  0.51206422  0.88305210  0.13235214     0.10100
C1780       C  0.52716957  0.86649658  0.16637970     0.21000
C1781       C  0.58185556  0.84348600  0.13371649    -0.53800
C1782       C  0.57152415  0.86483351  0.16057126     0.10200
C1783       C  0.52548739  0.80155306  0.14278383    -0.53300
C1784       C  0.51514336  0.82214828  0.17005214     0.10700
H1785       H  0.51556216  0.86840090  0.08117061     0.15300
H1786       H  0.51875570  0.88423977  0.18802421     0.01000
H1787       H  0.61202288  0.83977341  0.12579739     0.15600
H1788       H  0.52714220  0.76999558  0.14299987     0.15400
C1789       C  0.95999225  0.67811783  0.11776669     0.87100
C1790       C  0.98572069  0.64307495  0.10879414    -0.53100
C1791       C  0.99075857  0.61719638  0.13414839     0.10100
C1792       C  0.97284198  0.63171616  0.16748044     0.21000
C1793       C  0.92240926  0.65979472  0.13207523    -0.53800
C1794       C  0.92927854  0.63534546  0.15842208     0.10200
C1795       C  0.97842429  0.69821342  0.14731102    -0.53300
C1796       C  0.98633205  0.67505056  0.17371053     0.10700
H1797       H  0.99357840  0.63635423  0.08355225     0.15300
H1798       H  0.97814574  0.61197580  0.18890179     0.01000
H1799       H  0.89353778  0.66549018  0.12206641     0.15600
H1800       H  0.97222597  0.72877488  0.15121643     0.15400
C1801       C  0.95326511  0.66988004  0.38402277     0.87100
C1802       C  0.97650715  0.69413017  0.35842397    -0.53100
C1803       C  0.98797618  0.67378583  0.33128788     0.10100
C1804       C  0.97601277  0.62947726  0.33398833     0.21000
C1805       C  0.91966611  0.65149950  0.36468991    -0.53800
C1806       C  0.93135351  0.63085087  0.33805115     0.10200
C1807       C  0.97902172  0.63550729  0.39419643    -0.53300
C1808       C  0.98985047  0.61287648  0.36845736     0.10700
H1809       H  0.97788475  0.72593279  0.35937485     0.15300
H1810       H  0.98563720  0.61214614  0.31246779     0.01000
H1811       H  0.88908629  0.65456136  0.37167494     0.15600
H1812       H  0.98306556  0.62664639  0.41972089     0.15400
O1813       O  0.97732498  0.79257181  0.28575253    -0.71100
O1814       O  0.96236196  0.71315155  0.21952902    -0.71300
O1815       O  0.96361239  0.71463609  0.28730534    -0.71200
O1816       O  0.97619208  0.79149373  0.21779723    -0.71200
O1817       O  0.54016252  0.78230243  0.21493701    -0.71200
O1818       O  0.52821721  0.70470776  0.28446112    -0.71200
O1819       O  0.52832673  0.70384096  0.21625086    -0.71100
O1820       O  0.54021108  0.78302270  0.28291368    -0.71300
V1821       V  0.97112204  0.75270292  0.25256254     1.35200
V1822       V  0.53296995  0.74369000  0.24962429     1.35200
C1823       C  0.51070890  0.79950286  0.29576579     0.78100
C1824       C  0.99122152  0.69589328  0.20630690     0.78200
C1825       C  0.99270357  0.69670367  0.29949744     0.78000
C1826       C  0.51077345  0.79927531  0.20216082     0.78000
O1827       O  0.77177660  0.53918621  0.28255661    -0.71100
O1828       O  0.83853536  0.57649264  0.21429072    -0.71300
O1829       O  0.84113131  0.57754867  0.27937740    -0.71200
O1830       O  0.76990785  0.53798323  0.21725253    -0.71200
O1831       O  0.73908807  0.59342469  0.21662215    -0.71200
O1832       O  0.81070925  0.63338609  0.27883306    -0.71200
O1833       O  0.80726804  0.63183733  0.21342452    -0.71100
O1834       O  0.74182513  0.59523721  0.28224354    -0.71300
V1835       V  0.80466463  0.55881304  0.24840144     1.35200
V1836       V  0.77524182  0.61235510  0.24787891     1.35200
C1837       C  0.74533481  0.56096233  0.29382522     0.78100
C1838       C  0.83449719  0.61079722  0.20272006     0.78200
C1839       C  0.83870293  0.61256609  0.28884543     0.78000
C1840       C  0.74293193  0.55899094  0.20597293     0.78000
C1841       C  0.90316260  0.61304663  0.31518883    -0.15800
C1842       C  0.86787782  0.62932906  0.31070901    -0.30900
H1843       H  0.91183226  0.58742891  0.30133388     0.13300
H1844       H  0.86064248  0.65700122  0.32216288     0.13800
C1845       C  0.89864607  0.61406382  0.17697180    -0.15800
C1846       C  0.86196551  0.62727461  0.17869281    -0.30900
H1847       H  0.90758713  0.58945439  0.19234293     0.13300
H1848       H  0.85351702  0.65386953  0.16572848     0.13800
C1849       C  0.63541053  0.86826160  0.18751023    -0.15800
C1850       C  0.60001085  0.88379473  0.18240245    -0.30900
H1851       H  0.64351064  0.84080590  0.17609376     0.13300
H1852       H  0.59072228  0.90934370  0.19607237     0.13800
C1853       C  0.63854548  0.87064948  0.32168771    -0.15800
C1854       C  0.60133696  0.88233688  0.32365021    -0.30900
H1855       H  0.64811538  0.84457346  0.33482394     0.13300
H1856       H  0.59141572  0.90653446  0.30826196     0.13800
C1857       C  0.93483891  0.69956652  0.06274392    -0.15800
C1858       C  0.95420830  0.70733773  0.09044275    -0.30900
H1859       H  0.92069703  0.67118864  0.05913720     0.13300
H1860       H  0.96551796  0.73695336  0.09401424     0.13800
C1861       C  0.93735787  0.69302017  0.41173727    -0.15800
C1862       C  0.96051215  0.71384737  0.43130529    -0.30900
H1863       H  0.90569653  0.69420867  0.41490712     0.13300
H1864       H  0.99205190  0.71301331  0.42804072     0.13800
C1865       C  0.71934854  0.54667914  0.31996981    -0.15800
C1866       C  0.69769461  0.57120025  0.33769140    -0.30900
H1867       H  0.71825599  0.51557023  0.32556198     0.13300
H1868       H  0.69795741  0.60250637  0.33214030     0.13800
C1869       C  0.69926851  0.56828326  0.15991895    -0.15800
C1870       C  0.71781262  0.54388052  0.18001405    -0.30900
H1871       H  0.70092810  0.59978834  0.16398489     0.13300
H1872       H  0.71631402  0.51265179  0.17539789     0.13800
C1873       C  0.79818853  0.92956798  0.16106704    -0.15800
C1874       C  0.77827861  0.95496511  0.17938302    -0.30900
H1875       H  0.79609986  0.89825433  0.16644442     0.13300
H1876       H  0.78026937  0.98609172  0.17403676     0.13800
C1877       C  0.88602400  0.89279649  0.06784225    -0.15800
C1878       C  0.87317358  0.85574601  0.06417601    -0.30900
H1879       H  0.91107730  0.90371304  0.05374034     0.13300
H1880       H  0.84585492  0.84583878  0.07547500     0.13800
C1881       C  0.80081496  0.93679966  0.33929472    -0.15800
C1882       C  0.78031471  0.96064697  0.31993468    -0.30900
H1883       H  0.79976092  0.90528576  0.33518241     0.13300
H1884       H  0.78036785  0.99191326  0.32465977     0.13800
C1885       C  0.89378246  0.86619426  0.42588391    -0.15800
C1886       C  0.88608041  0.90310415  0.43482917    -0.30900
H1887       H  0.88737917  0.85578029  0.40134023     0.13300
H1888       H  0.89264161  0.91265847  0.45968481     0.13800
C1889       C  0.60894426  0.59989294  0.43330588    -0.15800
C1890       C  0.60079537  0.63739088  0.42578465    -0.30900
H1891       H  0.60322461  0.58884916  0.45808839     0.13300
H1892       H  0.60640911  0.64964095  0.40149012     0.13800
C1893       C  0.61173196  0.60120341  0.06604358    -0.15800
C1894       C  0.61840977  0.64007811  0.06654178    -0.30900
H1895       H  0.59062969  0.58883949  0.04891691     0.13300
H1896       H  0.64196922  0.65258236  0.08103281     0.13800
C1897       C  0.53252631  0.78200557  0.06880795    -0.15800
C1898       C  0.55881230  0.80127123  0.08718088    -0.30900
H1899       H  0.50144878  0.78387018  0.07417740     0.13300
H1900       H  0.58998006  0.79879880  0.08191234     0.13800
C1901       C  0.54781004  0.78963112  0.41234310    -0.15800
C1902       C  0.57013947  0.79782897  0.43847192    -0.30900
H1903       H  0.53399731  0.76070098  0.41080326     0.13300
H1904       H  0.58664310  0.82524466  0.43978812     0.13800
O1905       O  0.94159868  0.99211580  0.84988081    -0.71100
O1906       O  0.56185464  0.50231300  0.85159376    -0.71300
O1907       O  0.50392548  0.94374779  0.84337416    -0.71200
O1908       O  0.00471490  0.55041735  0.84793009    -0.71200
O1909       O  0.00331189  0.55237030  0.90122720    -0.71200
O1910       O  0.50154281  0.93856560  0.89659285    -0.71200
O1911       O  0.55894756  0.50392638  0.90485710    -0.71100
O1912       O  0.94361134  0.99297647  0.90320964    -0.71300
V1913       V  0.99878880  0.99722018  0.84945656     1.35200
V1914       V  0.50452955  0.49932559  0.90235325     1.35200
C1915       C  0.92359548  0.98982423  0.87766940     0.78100
C1916       C  0.57953643  0.50501947  0.87942256     0.78200
C1917       C  0.50320343  0.92214165  0.86831011     0.78000
C1918       C  0.00213927  0.57049831  0.87327885     0.78000
O1919       O  0.94387624  0.99384077  0.64661876    -0.71100
O1920       O  0.56108488  0.50642522  0.64821285    -0.71300
O1921       O  0.99774422  0.55668417  0.65302070    -0.71200
O1922       O  0.50127383  0.94923609  0.65177718    -0.71200
O1923       O  0.50079115  0.94815343  0.59843502    -0.71200
O1924       O  0.99904224  0.56033317  0.59972690    -0.71200
O1925       O  0.55893267  0.50503973  0.59487607    -0.71100
O1926       O  0.94855818  0.99366113  0.59339522    -0.71300
V1927       V  0.00098614  0.00026068  0.64893005     1.35200
V1928       V  0.50450587  0.50071834  0.59758175     1.35200
C1929       C  0.92712568  0.99190018  0.61830373     0.78100
C1930       C  0.57898401  0.50794862  0.62035724     0.78200
C1931       C  0.99631928  0.57754918  0.62767264     0.78000
C1932       C  0.50250891  0.92956044  0.62614810     0.78000
O1933       O  0.58135570  0.76071286  0.96563695    -0.71100
O1934       O  0.62611275  0.66944614  0.52652254    -0.71300
O1935       O  0.62115691  0.69448458  0.96760802    -0.71200
O1936       O  0.61311293  0.74432879  0.54021542    -0.71200
O1937       O  0.54962502  0.73799459  0.53727365    -0.71200
O1938       O  0.56660240  0.66059667  0.96744833    -0.71200
O1939       O  0.56312876  0.66045458  0.53176058    -0.71100
O1940       O  0.52604427  0.72821230  0.96583525    -0.71300
V1941       V  0.59946009  0.72759512  0.99923745     1.35200
V1942       V  0.54678689  0.69544236  0.99943585     1.35200
C1943       C  0.54744924  0.75549278  0.95412891     0.78100
C1944       C  0.59758411  0.64970657  0.53820878     0.78200
C1945       C  0.60143874  0.66564743  0.95742097     0.78000
C1946       C  0.57962979  0.75197765  0.55142077     0.78000
C1947       C  0.81959982  0.94999040  0.86577801     0.87100
C1948       C  0.85691586  0.97289812  0.85626374    -0.53100
C1949       C  0.88098866  0.98020514  0.88220463     0.10100
C1950       C  0.86377305  0.96509917  0.91616824     0.21000
C1951       C  0.83378825  0.91340170  0.88402202    -0.53800
C1952       C  0.85689084  0.92118167  0.91018471     0.10200
C1953       C  0.79901791  0.97386657  0.89251364    -0.53300
C1954       C  0.82126236  0.98108420  0.91989631     0.10700
H1955       H  0.86538632  0.97889973  0.83088905     0.15300
H1956       H  0.88262675  0.97106296  0.93783903     0.01000
H1957       H  0.82517812  0.88359584  0.87761009     0.15600
H1958       H  0.76765913  0.97886123  0.89194953     0.15400
C1959       C  0.82611877  0.94901411  0.62988599     0.87100
C1960       C  0.80235266  0.97039077  0.60365883    -0.53100
C1961       C  0.82254532  0.98195264  0.57615563     0.10100
C1962       C  0.86697102  0.97038331  0.57878623     0.21000
C1963       C  0.84372557  0.91461436  0.61153609    -0.53800
C1964       C  0.86468422  0.92571154  0.58430181     0.10200
C1965       C  0.86082218  0.97538738  0.63878130    -0.53300
C1966       C  0.88410019  0.98501432  0.61277681     0.10700
H1967       H  0.77097356  0.96780077  0.60395958     0.15300
H1968       H  0.88460295  0.97935491  0.55687871     0.01000
H1969       H  0.83974249  0.88421470  0.61932995     0.15600
H1970       H  0.86956452  0.98031756  0.66412716     0.15400
C1971       C  0.68572907  0.53827758  0.63250551     0.87100
C1972       C  0.70307564  0.51566750  0.60382485    -0.53100
C1973       C  0.67997229  0.51283235  0.57665598     0.10100
C1974       C  0.63932127  0.53239451  0.58236907     0.21000
C1975       C  0.67493130  0.57792077  0.61718558    -0.53800
C1976       C  0.65038755  0.57490609  0.59110818     0.10200
C1977       C  0.64689108  0.51803359  0.64141118    -0.53300
C1978       C  0.62170371  0.51578240  0.61568291     0.10700
H1979       H  0.73420316  0.51128504  0.60234481     0.15300
H1980       H  0.61945645  0.52999299  0.56085800     0.01000
H1981       H  0.68648261  0.60591299  0.62570191     0.15600
H1982       H  0.63878758  0.50961471  0.66641364     0.15400
C1983       C  0.67697470  0.55548286  0.86793705     0.87100
C1984       C  0.64520072  0.52544972  0.85849486    -0.53100
C1985       C  0.62241690  0.51337542  0.88437111     0.10100
C1986       C  0.63725890  0.52978001  0.91840506     0.21000
C1987       C  0.65493209  0.58743812  0.88595777    -0.53800
C1988       C  0.63432330  0.57429362  0.91277316     0.10200
C1989       C  0.70242045  0.53610446  0.89442306    -0.53300
C1990       C  0.68243447  0.52290852  0.92153368     0.10700
H1991       H  0.63701869  0.52033608  0.83305281     0.15300
H1992       H  0.62041925  0.51893306  0.94018137     0.01000
H1993       H  0.65494328  0.61769435  0.87733004     0.15600
H1994       H  0.73425066  0.53664941  0.89323090     0.15400
O1995       O  0.72626598  0.54256870  0.96528647    -0.71100
O1996       O  0.79889081  0.52220932  0.53394598    -0.71300
O1997       O  0.80251587  0.52264481  0.96587552    -0.71200
O1998       O  0.72148752  0.53904166  0.53341919    -0.71200
O1999       O  0.70160880  0.97633979  0.53237715    -0.71200
O2000       O  0.77953114  0.95779831  0.96422426    -0.71200
O2001       O  0.77937484  0.96042378  0.53210418    -0.71100
O2002       O  0.70323753  0.97629229  0.96421025    -0.71300
V2003       V  0.76348203  0.53103789  0.99961009     1.35200
V2004       V  0.74158763  0.96717552  0.99834277     1.35200
C2005       C  0.70522710  0.51540867  0.95287415     0.78100
C2006       C  0.79880284  0.98853742  0.54490160     0.78200
C2007       C  0.79984546  0.98602063  0.95215607     0.78000
C2008       C  0.70164585  0.50990935  0.54440463     0.78000
O2009       O  0.94886735  0.76206955  0.53472994    -0.71100
O2010       O  0.94576243  0.83860506  0.97105365    -0.71300
O2011       O  0.91911703  0.83450721  0.53009499    -0.71200
O2012       O  0.97350212  0.76455740  0.97207598    -0.71200
O2013       O  0.91494800  0.74726501  0.95656144    -0.71200
O2014       O  0.86176558  0.80746006  0.52233127    -0.71200
O2015       O  0.88545316  0.81933946  0.96365271    -0.71100
O2016       O  0.89231338  0.73499492  0.52384755    -0.71300
V2017       V  0.94983228  0.79796342  0.00321279     1.35200
V2018       V  0.89428234  0.77593234  0.99171974     1.35200
C2019       C  0.92366389  0.73520071  0.54010050     0.78100
C2020       C  0.91263007  0.84418663  0.95817949     0.78200
C2021       C  0.88277713  0.83340205  0.53584477     0.78000
C2022       C  0.95167245  0.74456033  0.95346885     0.78000
O2023       O  0.72550684  0.96984825  0.77832271    -0.71100
O2024       O  0.66082057  0.92906711  0.71068711    -0.71300
O2025       O  0.65740101  0.92911328  0.77628195    -0.71200
O2026       O  0.72925548  0.96948289  0.71276833    -0.71200
O2027       O  0.76006425  0.91393418  0.71432226    -0.71200
O2028       O  0.69021484  0.87470360  0.77823072    -0.71200
O2029       O  0.69252139  0.87404259  0.71252579    -0.71100
O2030       O  0.75727311  0.91491300  0.77962522    -0.71300
V2031       V  0.69383009  0.94839617  0.74450912     1.35200
V2032       V  0.72440645  0.89555460  0.74612012     1.35200
C2033       C  0.75228933  0.94911018  0.79056173     0.78100
C2034       C  0.66521816  0.89437915  0.70058808     0.78200
C2035       C  0.66182669  0.89485916  0.78787388     0.78000
C2036       C  0.75680136  0.94819212  0.70279423     0.78000
C2037       C  0.54724523  0.82425812  0.87976513     0.87100
C2038       C  0.52975918  0.79967590  0.85210699    -0.53100
C2039       C  0.51842127  0.82041084  0.82494054     0.10100
C2040       C  0.52620754  0.86535974  0.82896904     0.21000
C2041       C  0.58127423  0.84650887  0.86319039    -0.53800
C2042       C  0.57025316  0.86777443  0.83608842     0.10200
C2043       C  0.51755270  0.85578812  0.88835111    -0.54100
C2044       C  0.50830721  0.87938317  0.86251747     0.10700
H2045       H  0.53345066  0.76824015  0.85188634     0.15300
H2046       H  0.51711710  0.88281178  0.80709265     0.01000
H2047       H  0.61117608  0.84548600  0.87223778     0.15600
H2048       H  0.51110176  0.86349893  0.91368296     0.15400
C2049       C  0.54248892  0.82919237  0.61092067     0.87100
C2050       C  0.51483216  0.86334034  0.60424849    -0.53100
C2051       C  0.50903830  0.88647077  0.63068814     0.10100
C2052       C  0.52812640  0.86980439  0.66313018     0.21000
C2053       C  0.57944643  0.84829050  0.62587365    -0.53800
C2054       C  0.57176279  0.86931940  0.65369338     0.10200
C2055       C  0.52482334  0.80505118  0.63930462    -0.53300
C2056       C  0.51704930  0.82524896  0.66728239     0.10700
H2057       H  0.50641637  0.87225311  0.57951524     0.15300
H2058       H  0.52190550  0.88714117  0.68552473     0.01000
H2059       H  0.60859166  0.84549242  0.61538369     0.15600
H2060       H  0.52592441  0.77347198  0.63911804     0.15400
C2061       C  0.96086675  0.68266477  0.61679980     0.87100
C2062       C  0.98363985  0.64590699  0.60738577    -0.53100
C2063       C  0.98829039  0.62019862  0.63282036     0.10100
C2064       C  0.97173483  0.63577968  0.66644763     0.21000
C2065       C  0.92253654  0.66749309  0.63226619    -0.53800
C2066       C  0.92821014  0.64285426  0.65845991     0.10200
C2067       C  0.98209269  0.70155932  0.64555730    -0.53300
C2068       C  0.98854073  0.67805251  0.67215489     0.10700
H2069       H  0.99127209  0.63896006  0.58213942     0.15300
H2070       H  0.97610587  0.61571078  0.68781089     0.01000
H2071       H  0.89378895  0.67556390  0.62321998     0.15600
H2072       H  0.97966874  0.73273638  0.64861010     0.15400
C2073       C  0.95917502  0.67148084  0.88321509     0.87100
C2074       C  0.98206108  0.69470155  0.85679796    -0.53100
C2075       C  0.99221054  0.67370032  0.82971071     0.10100
C2076       C  0.97985454  0.62943908  0.83339273     0.21000
C2077       C  0.92473466  0.65293740  0.86479592    -0.53800
C2078       C  0.93536737  0.63134818  0.83825208     0.10200
C2079       C  0.98465098  0.63685572  0.89347504    -0.53300
C2080       C  0.99434274  0.61330587  0.86792931     0.10700
H2081       H  0.98458833  0.72651742  0.85739109     0.15300
H2082       H  0.98867244  0.61149998  0.81198454     0.01000
H2083       H  0.89441312  0.65672400  0.87226334     0.15600
H2084       H  0.98931635  0.62859740  0.91905485     0.15400
O2085       O  0.98229198  0.79333797  0.78572454    -0.71100
O2086       O  0.96569004  0.71583700  0.71841005    -0.71300
O2087       O  0.96758444  0.71548130  0.78620218    -0.71200
O2088       O  0.98094601  0.79417105  0.71780721    -0.71200
O2089       O  0.54189624  0.78429298  0.71163459    -0.71200
O2090       O  0.52934825  0.70369427  0.77871775    -0.71200
O2091       O  0.52833065  0.70609430  0.71043932    -0.71100
O2092       O  0.54253812  0.78161407  0.77976249    -0.71300
V2093       V  0.97534731  0.75440894  0.75197962     1.35200
V2094       V  0.53428473  0.74417019  0.74511995     1.35200
C2095       C  0.51357532  0.79883210  0.79282797     0.78100
C2096       C  0.99419644  0.69867825  0.70463235     0.78200
C2097       C  0.99648756  0.69653311  0.79772429     0.78000
C2098       C  0.51265819  0.80191095  0.69922315     0.78000
O2099       O  0.77139082  0.54671027  0.78033596    -0.71100
O2100       O  0.83459652  0.58856411  0.71236226    -0.71300
O2101       O  0.84183769  0.58294481  0.77709083    -0.71200
O2102       O  0.76397591  0.55337991  0.71539509    -0.71200
O2103       O  0.73478136  0.60909481  0.72271899    -0.71200
O2104       O  0.81434545  0.64004727  0.78113724    -0.71200
O2105       O  0.80545724  0.64482278  0.71615962    -0.71100
O2106       O  0.74477270  0.60369795  0.78724704    -0.71300
V2107       V  0.80231079  0.56893391  0.74637784     1.35200
V2108       V  0.77536534  0.62334225  0.75166106     1.35200
C2109       C  0.74742880  0.56787867  0.79539032     0.78100
C2110       C  0.83176706  0.62394007  0.70339141     0.78200
C2111       C  0.84161008  0.61715626  0.78888536     0.78000
C2112       C  0.73580244  0.57608906  0.70918164     0.78000
C2113       C  0.90639213  0.61377941  0.81568473    -0.15800
C2114       C  0.87180693  0.63133893  0.81119396    -0.30900
H2115       H  0.91416131  0.58801989  0.80164597     0.13300
H2116       H  0.86580919  0.65909594  0.82302404     0.13800
C2117       C  0.89614944  0.62476303  0.67777641    -0.15800
C2118       C  0.86043037  0.64084240  0.68029171    -0.30900
H2119       H  0.90329770  0.59893662  0.69240363     0.13300
H2120       H  0.85377482  0.66854447  0.66822975     0.13800
C2121       C  0.63831315  0.87708297  0.67646470    -0.15800
C2122       C  0.60161498  0.89024318  0.67325479    -0.30900
H2123       H  0.64726353  0.85056093  0.66400827     0.13300
H2124       H  0.59186706  0.91464324  0.68812340     0.13800
C2125       C  0.63479207  0.87756519  0.81171675    -0.15800
C2126       C  0.59793423  0.88981443  0.81498095    -0.30900
H2127       H  0.64457922  0.85133303  0.82453612     0.13300
H2128       H  0.58705070  0.91374949  0.79979782     0.13800
C2129       C  0.93054218  0.70467011  0.56468458    -0.15800
C2130       C  0.95539969  0.71141885  0.58926678    -0.30900
H2131       H  0.91358678  0.67747957  0.56376505     0.13300
H2132       H  0.97025713  0.73975672  0.59064552     0.13800
C2133       C  0.94449824  0.69605419  0.91074454    -0.15800
C2134       C  0.96828989  0.71828566  0.92888982    -0.30900
H2135       H  0.91300311  0.69701433  0.91493925     0.13300
H2136       H  0.99968341  0.71715395  0.92497232     0.13800
C2137       C  0.72337468  0.55071357  0.82178457    -0.15800
C2138       C  0.69960725  0.57268597  0.83959516    -0.30900
H2139       H  0.72558425  0.51973995  0.82763669     0.13300
H2140       H  0.69752129  0.60395056  0.83423532     0.13800
C2141       C  0.71358385  0.54272322  0.66039170    -0.15800
C2142       C  0.70522193  0.56536525  0.68596727    -0.30900
H2143       H  0.74259023  0.53081434  0.65781358     0.13300
H2144       H  0.67709352  0.57996746  0.68740629     0.13800
C2145       C  0.80221051  0.93600017  0.65871665    -0.15800
C2146       C  0.78396336  0.96203893  0.67751128    -0.30900
H2147       H  0.79822090  0.90466873  0.66329234     0.13300
H2148       H  0.78801016  0.99322928  0.67300157     0.13800
C2149       C  0.88234487  0.89722293  0.56212682    -0.15800
C2150       C  0.86517150  0.86210668  0.55736519    -0.30900
H2151       H  0.90877221  0.90574826  0.54870459     0.13300
H2152       H  0.83675235  0.85500317  0.56818306     0.13800
C2153       C  0.79440832  0.93808848  0.83737364    -0.15800
C2154       C  0.77676318  0.96375015  0.81755022    -0.30900
H2155       H  0.79016883  0.90685305  0.83300314     0.13300
H2156       H  0.77971063  0.99492303  0.82209029     0.13800
C2157       C  0.90484009  0.87964776  0.93851282    -0.15800
C2158       C  0.86764127  0.88934937  0.93254359    -0.30900
H2159       H  0.92899680  0.89778727  0.92929681     0.13300
H2160       H  0.84370726  0.87058852  0.94131834     0.13800
C2161       C  0.61105614  0.60054194  0.93362931    -0.15800
C2162       C  0.62012250  0.63888656  0.93490313    -0.30900
H2163       H  0.58822443  0.58804209  0.94938801     0.13300
H2164       H  0.64549585  0.65071892  0.92186375     0.13800
C2165       C  0.64014216  0.60971145  0.57176703    -0.15800
C2166       C  0.60477973  0.61466181  0.55840212    -0.30900
H2167       H  0.66231500  0.63283208  0.56961307     0.13300
H2168       H  0.58133632  0.59324730  0.56251078     0.13800
C2169       C  0.57585683  0.77667057  0.58029600    -0.15800
C2170       C  0.54931345  0.80513957  0.58079414    -0.30900
H2171       H  0.59569758  0.77235589  0.60086110     0.13300
H2172       H  0.53141389  0.81045418  0.55909703     0.13800
C2173       C  0.55996217  0.80055412  0.90876996    -0.15800
C2174       C  0.53397953  0.78026350  0.92711104    -0.30900
H2175       H  0.59107665  0.79946713  0.91447936     0.13300
H2176       H  0.50299592  0.78163347  0.92160326     0.13800
loop_ 
_geom_bond_atom_site_label_1 
_geom_bond_atom_site_label_2 
_geom_bond_distance 
_geom_bond_site_symmetry_2 
_ccdc_geom_bond_type 
O1            V9   1.962       .  S
O1           C11   1.287       .  A
O2         V1641   1.958   1_445  S
O2           C12   1.286       .  A
O3         V1097   1.855       .  S
O3           C13   1.245       .  A
O4          V553   1.862   1_545  S
O4           C14   1.245       .  A
O5         V1098   1.959   1_545  S
O5           C14   1.287       .  A
O6          V554   1.955       .  S
O6           C13   1.285       .  A
O7           V10   1.861   1_455  S
O7           C12   1.246   1_565  A
O8         V1642   1.865       .  S
O8           C11   1.247       .  A
V9         O1634   1.959       .  S
V9         O1091   1.863       .  S
V9          O548   1.856       .  S
V9         V1642   2.078       .  T
V10        O1093   1.952   1_665  S
V10         O550   1.953       .  S
V10        O1640   1.863       .  S
V10        V1641   2.080       .  T
C11          C45   1.502       .  S
C12          C81   1.496       .  S
C13         C140   1.488       .  S
C14         C176   1.495       .  S
O15          V23   1.956       .  S
O15          C25   1.284       .  A
O16        V1655   1.965   1_445  S
O16          C26   1.288       .  A
O17         V567   1.861       .  S
O17          C27   1.247       .  A
O18        V1111   1.867       .  S
O18          C28   1.248       .  A
O19         V568   1.958       .  S
O19          C28   1.285       .  A
O20        V1112   1.960       .  S
O20          C27   1.285       .  A
O21          V24   1.862   1_455  S
O21          C26   1.246   1_565  A
O22        V1656   1.865       .  S
O22          C25   1.248       .  A
V23        O1648   1.951       .  S
V23         O561   1.870       .  S
V23        O1106   1.871       .  S
V23        V1656   2.080       .  T
V24         O563   1.959   1_655  S
V24        O1108   1.962   1_565  S
V24        O1654   1.861       .  S
V24        V1655   2.079       .  T
C25          C62   1.496       .  S
C26          C74   1.503       .  S
C27         C159   1.495       .  S
C28         C147   1.497       .  S
O29          V37   1.884       .  S
O29          C39   1.258       .  A
O30         V309   1.879       .  S
O30          C40   1.259       .  A
O31          V37   1.882       .  S
O31          C41   1.260       .  A
O32         V309   1.888       .  S
O32          C42   1.262       .  A
O33         V310   1.891       .  S
O33          C42   1.261       .  A
O34          V38   1.894       .  S
O34          C41   1.263       .  A
O35         V310   1.897       .  S
O35          C40   1.262       .  A
O36          V38   1.888       .  S
O36          C39   1.265       .  A
V37         O302   1.881       .  S
V37         O304   1.876       .  S
V37          V38   2.088       .  T
V38         O305   1.897       .  S
V38         O307   1.897       .  S
C39         C270   1.453       .  S
C40         C262   1.449       .  S
C41         C258   1.452       .  S
C42         C265   1.461       .  S
C43          C44   1.532       .  S
C43          C49   1.534       .  S
C43          C47   1.527       .  S
C43         C249   1.495       .  S
C44          H51   1.087       .  S
C44          C45   1.360       .  D
C45          C46   1.579       .  S
C46          C50   1.564       .  S
C46          C48   1.527       .  S
C46          H52   1.111       .  S
C47          H53   1.086       .  S
C47          C48   1.364       .  D
C48         C254   1.462       .  S
C49          H54   1.086       .  S
C49          C50   1.363       .  D
C50         C103   1.515       .  S
C55          C56   1.537       .  S
C55          C61   1.532       .  S
C55          C59   1.526       .  S
C55         C241   1.500       .  S
C56          H63   1.085       .  S
C56          C57   1.367       .  D
C57         C102   1.516       .  S
C57          C58   1.562       .  S
C58          C62   1.574       .  S
C58          C60   1.535       .  S
C58          H64   1.111       .  S
C59          H65   1.084       .  S
C59          C60   1.363       .  D
C60         C245   1.473       .  S
C61          H66   1.086       .  S
C61          C62   1.361       .  D
C67          C68   1.535       .  S
C67          C73   1.531       .  S
C67          C71   1.530       .  S
C67         C237   1.496       .  S
C68          H75   1.086       .  S
C68          C69   1.364       .  D
C69         C104   1.521       .  S
C69          C70   1.567       .  S
C70          C74   1.583       .  S
C70          C72   1.528       .  S
C70          H76   1.111       .  S
C71          H77   1.086       .  S
C71          C72   1.364       .  D
C72         C261   1.462       .  S
C73          H78   1.087       .  S
C73          C74   1.357       .  D
C79          C80   1.530       .  S
C79          C85   1.533       .  S
C79          C83   1.523       .  S
C79         C234   1.496       .  S
C80          H87   1.087       .  S
C80          C81   1.357       .  D
C81          C82   1.578       .  S
C82          C86   1.566       .  S
C82          C84   1.539       .  S
C82          H88   1.111       .  S
C83          H89   1.086       .  S
C83          C84   1.365       .  D
C84         C257   1.471       .  S
C85          H90   1.079       .  S
C85          C86   1.366       .  D
C86         C101   1.524       .  S
O91          V99   1.936       .  S
O91         C101   1.274       .  A
O92         V371   1.929   1_554  S
O92         C646   1.268   1_545  A
O93          V99   1.927       .  S
O93         C647   1.268   1_545  A
O94         V371   1.929   1_554  S
O94         C104   1.273       .  A
O95         V372   1.939       .  S
O95         C648   1.272       .  A
O96         V100   1.927       .  S
O96         C103   1.273       .  A
O97         V372   1.925       .  S
O97         C102   1.270       .  A
O98         V100   1.928       .  S
O98         C645   1.267       .  A
V99         O364   1.942       .  S
V99         O366   1.930       .  S
V99         V644   2.080   1_545  T
V100        O367   1.934       .  S
V100        O369   1.921       .  S
V100        V643   2.082       .  T
C101        O642   1.271   1_545  A
C102        O636   1.272       .  A
C103        O637   1.269       .  A
C104        O639   1.271   1_545  A
O105        V385   1.880   1_554  S
O105        C115   1.262       .  A
O106        V113   1.887       .  S
O106        C116   1.258       .  A
O107        V385   1.890   1_554  S
O107        C117   1.260       .  A
O108        V113   1.896       .  S
O108        C118   1.261       .  A
O109        V114   1.867       .  S
O109        C118   1.260       .  A
O110        V386   1.888   1_554  S
O110        C117   1.262       .  A
O111        V114   1.883       .  S
O111        C116   1.262       .  A
O112        V386   1.903   1_554  S
O112        C115   1.262       .  A
V113        O377   1.880       .  S
V113        O379   1.895       .  S
V113        V114   2.088       .  T
V114        O382   1.879       .  S
V114        O384   1.892       .  S
C115        C225   1.465       .  S
C116        C253   1.442       .  S
C117        C246   1.447       .  S
C118        C230   1.458       .  S
O119        V127   1.883       .  S
O119        C129   1.259       .  A
O120        V127   1.887       .  S
O120        C130   1.262       .  A
O121        V127   1.888       .  S
O121        C131   1.263       .  A
O122        V127   1.888       .  S
O122        C132   1.260       .  A
O123        V128   1.893       .  S
O123        C132   1.264       .  A
O124        V128   1.896       .  S
O124        C131   1.262       .  A
O125        V128   1.894       .  S
O125        C130   1.262       .  A
O126        V128   1.892       .  S
O126        C129   1.263       .  A
V127        V128   2.090       .  T
C129        C250   1.458       .  S
C130        C217   1.461       .  S
C131        C221   1.465       .  S
C132        C242   1.466       .  S
C133        C134   1.520       .  S
C133        C139   1.528       .  S
C133        C137   1.538       .  S
C133        C269   1.490       .  S
C134        H141   1.076       .  S
C134        C135   1.357       .  D
C135        C191   1.504       .  S
C135        C136   1.558       .  S
C136        C140   1.571       .  S
C136        C138   1.534       .  S
C136        H142   1.111       .  S
C137        H143   1.085       .  S
C137        C138   1.369       .  D
C138        C222   1.471       .  S
C139        H144   1.087       .  S
C139        C140   1.354       .  D
C145        C146   1.531       .  S
C145        C151   1.529       .  S
C145        C149   1.530       .  S
C145        C266   1.499       .  S
C146        H153   1.086       .  S
C146        C147   1.358       .  D
C147        C148   1.574       .  S
C148        C152   1.562       .  S
C148        C150   1.537       .  S
C148        H154   1.111       .  S
C149        H155   1.086       .  S
C149        C150   1.367       .  D
C150        C218   1.470       .  S
C151        H156   1.076       .  S
C151        C152   1.361       .  D
C152        C194   1.514       .  S
C157        C158   1.533       .  S
C157        C163   1.531       .  S
C157        C161   1.528       .  S
C157        C226   1.496       .  S
C158        H165   1.086       .  S
C158        C159   1.360       .  D
C159        C160   1.573       .  S
C160        C164   1.558       .  S
C160        C162   1.535       .  S
C160        H166   1.111       .  S
C161        H167   1.085       .  S
C161        C162   1.368       .  D
C162        C213   1.469       .  S
C163        H168   1.079       .  S
C163        C164   1.360       .  D
C164        C192   1.513       .  S
C169        C170   1.528       .  S
C169        C175   1.525       .  S
C169        C173   1.527       .  S
C169        C229   1.485       .  S
C170        H177   1.079       .  S
C170        C171   1.364       .  D
C171        C193   1.519       .  S
C171        C172   1.568       .  S
C172        C176   1.581       .  S
C172        C174   1.535       .  S
C172        H178   1.111       .  S
C173        H179   1.086       .  S
C173        C174   1.362       .  D
C174        C209   1.469       .  S
C175        H180   1.087       .  S
C175        C176   1.355       .  D
O181        V189   1.930       .  S
O181       C1279   1.268       .  A
O182        V189   1.924       .  S
O182        C192   1.270       .  A
O183        V189   1.934       .  S
O183        C193   1.274       .  A
O184        V189   1.937       .  S
O184       C1282   1.272       .  A
O185        V190   1.928       .  S
O185        C194   1.271       .  A
O186        V190   1.936       .  S
O186       C1281   1.271   1_455  A
O187        V190   1.931       .  S
O187       C1280   1.269   1_455  A
O188        V190   1.921       .  S
O188        C191   1.270       .  A
V189       V1278   2.081       .  T
V190       V1277   2.082   1_455  T
C191       O1269   1.268   1_455  A
C192       O1275   1.271       .  A
C193       O1274   1.270       .  A
C194       O1272   1.270   1_455  A
O195        V203   1.894       .  S
O195        C205   1.262       .  A
O196        V203   1.890       .  S
O196        C206   1.264       .  A
O197        V203   1.883       .  S
O197        C207   1.260       .  A
O198        V203   1.876       .  S
O198        C208   1.258       .  A
O199        V204   1.894       .  S
O199        C208   1.263       .  A
O200        V204   1.892       .  S
O200        C207   1.262       .  A
O201        V204   1.886       .  S
O201        C206   1.260       .  A
O202        V204   1.884       .  S
O202        C205   1.262       .  A
V203        V204   2.090       .  T
C205        C233   1.460       .  S
C206        C214   1.457       .  S
C207        C210   1.455       .  S
C208        C238   1.457       .  S
C209        H211   1.087       .  S
C209        C210   1.342       .  D
C210        H212   1.085       .  S
C213        H215   1.087       .  S
C213        C214   1.338       .  D
C214        H216   1.085       .  S
C217        H219   1.086       .  S
C217        C218   1.341       .  D
C218        H220   1.087       .  S
C221        H223   1.085       .  S
C221        C222   1.340       .  D
C222        H224   1.087       .  S
C225        H227   1.086       .  S
C225        C226   1.339       .  D
C226        H228   1.081       .  S
C229        H231   1.087       .  S
C229        C230   1.336       .  D
C230        H232   1.084       .  S
C233        H235   1.081       .  S
C233        C234   1.335       .  D
C234        H236   1.088       .  S
C237        H239   1.087       .  S
C237        C238   1.330       .  D
C238        H240   1.082       .  S
C241        H243   1.088       .  S
C241        C242   1.331       .  D
C242        H244   1.082       .  S
C245        H247   1.087       .  S
C245        C246   1.341       .  D
C246        H248   1.083       .  S
C249        H251   1.087       .  S
C249        C250   1.329       .  D
C250        H252   1.081       .  S
C253        H255   1.086       .  S
C253        C254   1.336       .  D
C254        H256   1.088       .  S
C257        H259   1.086       .  S
C257        C258   1.340       .  D
C258        H260   1.086       .  S
C261        H263   1.087       .  S
C261        C262   1.337       .  D
C262        H264   1.087       .  S
C265        H267   1.085       .  S
C265        C266   1.339       .  D
C266        H268   1.087       .  S
C269        H271   1.089       .  S
C269        C270   1.332       .  D
C270        H272   1.087       .  S
O273        V281   1.958       .  S
O273        C283   1.287       .  A
O274       V1913   1.961   1_445  S
O274        C284   1.286       .  A
O275       V1369   1.863       .  S
O275        C285   1.245       .  A
O276        V825   1.860   1_545  S
O276        C286   1.246       .  A
O277       V1370   1.955   1_545  S
O277        C286   1.285       .  A
O278        V826   1.961       .  S
O278        C285   1.288       .  A
O279        V282   1.868   1_445  S
O279        C284   1.249       .  A
O280       V1914   1.867       .  S
O280        C283   1.246       .  A
V281       O1906   1.962       .  S
V281       O1363   1.858       .  S
V281        O820   1.861       .  S
V281       V1914   2.079       .  T
V282       O1365   1.961   1_565  S
V282        O822   1.956   1_655  S
V282       O1912   1.868       .  S
V282       V1913   2.080       .  T
C283        C317   1.496       .  S
C284        C353   1.503       .  S
C285        C412   1.498       .  S
C286        C448   1.491       .  S
O287        V295   1.953       .  S
O287        C297   1.284       .  A
O288       V1927   1.962       .  S
O288        C298   1.286       .  A
O289        V839   1.864       .  S
O289        C299   1.246       .  A
O290       V1383   1.863       .  S
O290        C300   1.246       .  A
O291        V840   1.961       .  S
O291        C300   1.287       .  A
O292       V1384   1.961       .  S
O292        C299   1.287       .  A
O293        V296   1.866       .  S
O293        C298   1.247       .  A
O294       V1928   1.860       .  S
O294        C297   1.246       .  A
V295       O1920   1.952       .  S
V295        O833   1.860       .  S
V295       O1378   1.865       .  S
V295       V1928   2.081       .  T
V296        O835   1.969   1_545  S
V296       O1380   1.964   1_455  S
V296       O1926   1.870   1_445  S
V296       V1927   2.079       .  T
C297        C334   1.490       .  S
C298        C346   1.498       .  S
C299        C431   1.498       .  S
C300        C419   1.498       .  S
O301        V309   1.882   1_556  S
O301        C311   1.261       .  A
O302        C312   1.264       .  A
O303        V309   1.883   1_556  S
O303        C313   1.261       .  A
O304        C314   1.261       .  A
O305        C314   1.262       .  A
O306        V310   1.898   1_556  S
O306        C313   1.261       .  A
O307        C312   1.262       .  A
O308        V310   1.890   1_556  S
O308        C311   1.260       .  A
V309        V310   2.092       .  T
C311        C542   1.457       .  S
C312        C534   1.466       .  S
C313        C530   1.451       .  S
C314        C537   1.461       .  S
C315        C316   1.526       .  S
C315        C321   1.526       .  S
C315        C319   1.527       .  S
C315        C521   1.488       .  S
C316        H323   1.086       .  S
C316        C317   1.356       .  D
C317        C318   1.581       .  S
C318        C322   1.565       .  S
C318        C320   1.537       .  S
C318        H324   1.110       .  S
C319        H325   1.087       .  S
C319        C320   1.353       .  D
C320        C526   1.458       .  S
C321        H326   1.073       .  S
C321        C322   1.363       .  D
C322        C375   1.512       .  S
C327        C328   1.531       .  S
C327        C333   1.528       .  S
C327        C331   1.524       .  S
C327        C513   1.487       .  S
C328        H335   1.086       .  S
C328        C329   1.363       .  D
C329        C374   1.506       .  S
C329        C330   1.561       .  S
C330        C334   1.576       .  S
C330        C332   1.534       .  S
C330        H336   1.111       .  S
C331        H337   1.086       .  S
C331        C332   1.361       .  D
C332        C517   1.470       .  S
C333        H338   1.087       .  S
C333        C334   1.358       .  D
C339        C340   1.533       .  S
C339        C345   1.533       .  S
C339        C343   1.526       .  S
C339        C509   1.499       .  S
C340        H347   1.078       .  S
C340        C341   1.367       .  D
C341        C376   1.519       .  S
C341        C342   1.566       .  S
C342        C346   1.578       .  S
C342        C344   1.539       .  S
C342        H348   1.110       .  S
C343        H349   1.087       .  S
C343        C344   1.353       .  D
C344        C533   1.460       .  S
C345        H350   1.086       .  S
C345        C346   1.361       .  D
C351        C352   1.535       .  S
C351        C357   1.535       .  S
C351        C355   1.531       .  S
C351        C506   1.503       .  S
C352        H359   1.087       .  S
C352        C353   1.363       .  D
C353        C354   1.578       .  S
C354        C358   1.560       .  S
C354        C356   1.529       .  S
C354        H360   1.111       .  S
C355        H361   1.087       .  S
C355        C356   1.364       .  D
C356        C529   1.462       .  S
C357        H362   1.087       .  S
C357        C358   1.363       .  D
C358        C373   1.512       .  S
O363        V371   1.922       .  S
O363        C373   1.271       .  A
O364        C918   1.272   1_545  A
O365        V371   1.932       .  S
O365        C919   1.269   1_545  A
O366        C376   1.271       .  A
O367        C920   1.270       .  A
O368        V372   1.933   1_556  S
O368        C375   1.273       .  A
O369        C374   1.270       .  A
O370        V372   1.940   1_556  S
O370        C917   1.271       .  A
V371        V916   2.081   1_545  T
V372        V915   2.080       .  T
C373        O914   1.270   1_545  A
C374        O908   1.269       .  A
C375        O909   1.267       .  A
C376        O911   1.272   1_545  A
O377        C387   1.263       .  A
O378        V385   1.889       .  S
O378        C388   1.259       .  A
O379        C389   1.264       .  A
O380        V385   1.885       .  S
O380        C390   1.261       .  A
O381        V386   1.891       .  S
O381        C390   1.259       .  A
O382        C389   1.259       .  A
O383        V386   1.887       .  S
O383        C388   1.266       .  A
O384        C387   1.259       .  A
V385        V386   2.085       .  T
C387        C497   1.457       .  S
C388        C525   1.460       .  S
C389        C518   1.451       .  S
C390        C502   1.455       .  S
O391        V399   1.894       .  S
O391        C401   1.264       .  A
O392        V399   1.900       .  S
O392        C402   1.264       .  A
O393        V399   1.880       .  S
O393        C403   1.260       .  A
O394        V399   1.882       .  S
O394        C404   1.258       .  A
O395        V400   1.882       .  S
O395        C404   1.262       .  A
O396        V400   1.894       .  S
O396        C403   1.262       .  A
O397        V400   1.878       .  S
O397        C402   1.259       .  A
O398        V400   1.880       .  S
O398        C401   1.257       .  A
V399        V400   2.090       .  T
C401        C522   1.453       .  S
C402        C489   1.455       .  S
C403        C493   1.456       .  S
C404        C514   1.455       .  S
C405        C406   1.531       .  S
C405        C411   1.529       .  S
C405        C409   1.526       .  S
C405        C541   1.493       .  S
C406        H413   1.078       .  S
C406        C407   1.365       .  D
C407        C463   1.523       .  S
C407        C408   1.567       .  S
C408        C412   1.578       .  S
C408        C410   1.538       .  S
C408        H414   1.111       .  S
C409        H415   1.086       .  S
C409        C410   1.364       .  D
C410        C494   1.467       .  S
C411        H416   1.087       .  S
C411        C412   1.355       .  D
C417        C418   1.528       .  S
C417        C423   1.527       .  S
C417        C421   1.528       .  S
C417        C538   1.492       .  S
C418        H425   1.087       .  S
C418        C419   1.359       .  D
C419        C420   1.580       .  S
C420        C424   1.567       .  S
C420        C422   1.535       .  S
C420        H426   1.111       .  S
C421        H427   1.086       .  S
C421        C422   1.366       .  D
C422        C490   1.474       .  S
C423        H428   1.080       .  S
C423        C424   1.360       .  D
C424        C466   1.517       .  S
C429        C430   1.528       .  S
C429        C435   1.527       .  S
C429        C433   1.532       .  S
C429        C498   1.488       .  S
C430        H437   1.087       .  S
C430        C431   1.355       .  D
C431        C432   1.580       .  S
C432        C436   1.564       .  S
C432        C434   1.537       .  S
C432        H438   1.111       .  S
C433        H439   1.086       .  S
C433        C434   1.364       .  D
C434        C485   1.471       .  S
C435        H440   1.077       .  S
C435        C436   1.360       .  D
C436        C464   1.514       .  S
C441        C442   1.531       .  S
C441        C447   1.527       .  S
C441        C445   1.533       .  S
C441        C501   1.495       .  S
C442        H449   1.081       .  S
C442        C443   1.364       .  D
C443        C465   1.512       .  S
C443        C444   1.561       .  S
C444        C448   1.574       .  S
C444        C446   1.535       .  S
C444        H450   1.111       .  S
C445        H451   1.086       .  S
C445        C446   1.366       .  D
C446        C481   1.474       .  S
C447        H452   1.086       .  S
C447        C448   1.355       .  D
O453        V461   1.936       .  S
O453       C1551   1.270       .  A
O454        V461   1.930       .  S
O454        C464   1.272       .  A
O455        V461   1.927       .  S
O455        C465   1.271       .  A
O456        V461   1.938       .  S
O456       C1554   1.271       .  A
O457        V462   1.930       .  S
O457        C466   1.273       .  A
O458        V462   1.933       .  S
O458       C1553   1.270   1_455  A
O459        V462   1.939       .  S
O459       C1552   1.271   1_455  A
O460        V462   1.934       .  S
O460        C463   1.273       .  A
V461       V1550   2.081       .  T
V462       V1549   2.080   1_455  T
C463       O1541   1.272   1_455  A
C464       O1547   1.269       .  A
C465       O1546   1.270       .  A
C466       O1544   1.270   1_455  A
O467        V475   1.876       .  S
O467        C477   1.257       .  A
O468        V475   1.877       .  S
O468        C478   1.260       .  A
O469        V475   1.895       .  S
O469        C479   1.263       .  A
O470        V475   1.895       .  S
O470        C480   1.264       .  A
O471        V476   1.892       .  S
O471        C480   1.261       .  A
O472        V476   1.890       .  S
O472        C479   1.261       .  A
O473        V476   1.907       .  S
O473        C478   1.266       .  A
O474        V476   1.902       .  S
O474        C477   1.264       .  A
V475        V476   2.089       .  T
C477        C505   1.464       .  S
C478        C486   1.465       .  S
C479        C482   1.461       .  S
C480        C510   1.464       .  S
C481        H483   1.086       .  S
C481        C482   1.341       .  D
C482        H484   1.086       .  S
C485        H487   1.087       .  S
C485        C486   1.345       .  D
C486        H488   1.085       .  S
C489        H491   1.086       .  S
C489        C490   1.339       .  D
C490        H492   1.086       .  S
C493        H495   1.085       .  S
C493        C494   1.342       .  D
C494        H496   1.087       .  S
C497        H499   1.087       .  S
C497        C498   1.336       .  D
C498        H500   1.083       .  S
C501        H503   1.085       .  S
C501        C502   1.337       .  D
C502        H504   1.086       .  S
C505        H507   1.084       .  S
C505        C506   1.332       .  D
C506        H508   1.087       .  S
C509        H511   1.078       .  S
C509        C510   1.339       .  D
C510        H512   1.087       .  S
C513        H515   1.088       .  S
C513        C514   1.328       .  D
C514        H516   1.083       .  S
C517        H519   1.086       .  S
C517        C518   1.339       .  D
C518        H520   1.087       .  S
C521        H523   1.076       .  S
C521        C522   1.333       .  D
C522        H524   1.087       .  S
C525        H527   1.087       .  S
C525        C526   1.331       .  D
C526        H528   1.088       .  S
C529        H531   1.087       .  S
C529        C530   1.336       .  D
C530        H532   1.087       .  S
C533        H535   1.087       .  S
C533        C534   1.336       .  D
C534        H536   1.087       .  S
C537        H539   1.083       .  S
C537        C538   1.337       .  D
C538        H540   1.087       .  S
C541        H543   1.087       .  S
C541        C542   1.336       .  D
C542        H544   1.084       .  S
O545        V553   1.954       .  S
O545        C555   1.285       .  A
O546       V1097   1.956       .  S
O546        C556   1.285       .  A
O547       V1641   1.857   1_455  S
O547        C557   1.246       .  A
O548        C558   1.245       .  A
O549       V1642   1.958       .  S
O549        C558   1.286       .  A
O550        C557   1.285   1_655  A
O551        V554   1.864       .  S
O551        C556   1.247       .  A
O552       V1098   1.869       .  S
O552        C555   1.247       .  A
V553       O1090   1.956   1_565  S
V553       O1635   1.857       .  S
V553       V1098   2.080       .  T
V554       O1637   1.958   1_455  S
V554       O1096   1.860   1_455  S
V554       V1097   2.081       .  T
C555        C589   1.494       .  S
C556        C625   1.495       .  S
C557        C684   1.491       .  S
C558        C720   1.492       .  S
O559        V567   1.959   1_565  S
O559        C569   1.286       .  A
O560       V1111   1.958       .  S
O560        C570   1.285       .  A
O561        C571   1.249       .  A
O562       V1655   1.860   1_455  S
O562        C572   1.245       .  A
O563        C572   1.286       .  A
O564       V1656   1.960       .  S
O564        C571   1.285       .  A
O565        V568   1.872       .  S
O565        C570   1.249       .  A
O566       V1112   1.870   1_565  S
O566        C569   1.248       .  A
V567       O1104   1.962       .  S
V567       O1650   1.861   1_545  S
V567       V1112   2.080       .  T
V568       O1652   1.962   1_455  S
V568       O1110   1.880   1_455  S
V568       V1111   2.080       .  T
C569        C606   1.499       .  S
C570        C618   1.500       .  S
C571        C703   1.501       .  S
C572        C691   1.493       .  S
O573        V581   1.876       .  S
O573        C583   1.262       .  A
O574        V853   1.897   1_554  S
O574        C584   1.264       .  A
O575        V581   1.881       .  S
O575        C585   1.259       .  A
O576        V853   1.878   1_554  S
O576        C586   1.257       .  A
O577        V854   1.887       .  S
O577        C586   1.263       .  A
O578        V582   1.897       .  S
O578        C585   1.262       .  A
O579        V854   1.877       .  S
O579        C584   1.259       .  A
O580        V582   1.881       .  S
O580        C583   1.257       .  A
V581        O846   1.894       .  S
V581        O848   1.886       .  S
V581        V582   2.091       .  T
V582        O849   1.894       .  S
V582        O851   1.879       .  S
C583        C814   1.456       .  S
C584        C806   1.456       .  S
C585        C802   1.449       .  S
C586        C809   1.447       .  S
C587        C588   1.525       .  S
C587        C593   1.529       .  S
C587        C591   1.531       .  S
C587        C793   1.489       .  S
C588        H595   1.086       .  S
C588        C589   1.357       .  D
C589        C590   1.579       .  S
C590        C594   1.562       .  S
C590        C592   1.540       .  S
C590        H596   1.110       .  S
C591        H597   1.087       .  S
C591        C592   1.356       .  D
C592        C798   1.465       .  S
C593        H598   1.075       .  S
C593        C594   1.362       .  D
C594        C647   1.511       .  S
C599        C600   1.531       .  S
C599        C605   1.527       .  S
C599        C603   1.524       .  S
C599        C785   1.487       .  S
C600        H607   1.086       .  S
C600        C601   1.362       .  D
C601        C646   1.509       .  S
C601        C602   1.566       .  S
C602        C606   1.583       .  S
C602        C604   1.539       .  S
C602        H608   1.110       .  S
C603        H609   1.086       .  S
C603        C604   1.360       .  D
C604        C789   1.476       .  S
C605        H610   1.086       .  S
C605        C606   1.360       .  D
C611        C612   1.539       .  S
C611        C617   1.532       .  S
C611        C615   1.525       .  S
C611        C781   1.499       .  S
C612        H619   1.084       .  S
C612        C613   1.371       .  D
C613        C648   1.516       .  S
C613        C614   1.562       .  S
C614        C618   1.577       .  S
C614        C616   1.535       .  S
C614        H620   1.111       .  S
C615        H621   1.085       .  S
C615        C616   1.358       .  D
C616        C805   1.470       .  S
C617        H622   1.086       .  S
C617        C618   1.361       .  D
C623        C624   1.529       .  S
C623        C629   1.529       .  S
C623        C627   1.530       .  S
C623        C778   1.491       .  S
C624        H631   1.087       .  S
C624        C625   1.359       .  D
C625        C626   1.577       .  S
C626        C630   1.563       .  S
C626        C628   1.532       .  S
C626        H632   1.111       .  S
C627        H633   1.084       .  S
C627        C628   1.367       .  D
C628        C801   1.475       .  S
C629        H634   1.087       .  S
C629        C630   1.361       .  D
C630        C645   1.507       .  S
O635        V643   1.924       .  S
O635        C645   1.272       .  A
O636        V915   1.940       .  S
O637        V643   1.935       .  S
O638        V915   1.925       .  S
O638        C648   1.270       .  A
O639        V916   1.940   1_554  S
O640        V644   1.932       .  S
O640        C647   1.273       .  A
O641        V916   1.927   1_554  S
O641        C646   1.272       .  A
O642        V644   1.940       .  S
V643        O908   1.931       .  S
V643        O910   1.928       .  S
V644        O911   1.939       .  S
V644        O913   1.930       .  S
O649        V929   1.900   1_554  S
O649        C659   1.266       .  A
O650        V657   1.885       .  S
O650        C660   1.259       .  A
O651        V929   1.889   1_554  S
O651        C661   1.261       .  A
O652        V657   1.902       .  S
O652        C662   1.266       .  A
O653        V658   1.881       .  S
O653        C662   1.257       .  A
O654        V930   1.893   1_554  S
O654        C661   1.263       .  A
O655        V658   1.897       .  S
O655        C660   1.267       .  A
O656        V930   1.891   1_554  S
O656        C659   1.260       .  A
V657        O921   1.884       .  S
V657        O923   1.903       .  S
V657        V658   2.085       .  T
V658        O926   1.883       .  S
V658        O928   1.908       .  S
C659        C769   1.466       .  S
C660        C797   1.461       .  S
C661        C790   1.458       .  S
C662        C774   1.454       .  S
O663        V671   1.885       .  S
O663        C673   1.263       .  A
O664        V671   1.895       .  S
O664        C674   1.261       .  A
O665        V671   1.889       .  S
O665        C675   1.262       .  A
O666        V671   1.886       .  S
O666        C676   1.260       .  A
O667        V672   1.871       .  S
O667        C676   1.260       .  A
O668        V672   1.876       .  S
O668        C675   1.258       .  A
O669        V672   1.885       .  S
O669        C674   1.265       .  A
O670        V672   1.890       .  S
O670        C673   1.259       .  A
V671        V672   2.086       .  T
C673        C794   1.458       .  S
C674        C761   1.465       .  S
C675        C765   1.444       .  S
C676        C786   1.459       .  S
C677        C678   1.531       .  S
C677        C683   1.527       .  S
C677        C681   1.521       .  S
C677        C813   1.484       .  S
C678        H685   1.084       .  S
C678        C679   1.364       .  D
C679        C735   1.510       .  S
C679        C680   1.563       .  S
C680        C684   1.578       .  S
C680        C682   1.534       .  S
C680        H686   1.111       .  S
C681        H687   1.086       .  S
C681        C682   1.358       .  D
C682        C766   1.468       .  S
C683        H688   1.087       .  S
C683        C684   1.359       .  D
C689        C690   1.528       .  S
C689        C695   1.519       .  S
C689        C693   1.527       .  S
C689        C810   1.489       .  S
C690        H697   1.086       .  S
C690        C691   1.356       .  D
C691        C692   1.577       .  S
C692        C696   1.566       .  S
C692        C694   1.542       .  S
C692        H698   1.110       .  S
C693        H699   1.087       .  S
C693        C694   1.355       .  D
C694        C762   1.460       .  S
C695        H700   1.072       .  S
C695        C696   1.361       .  D
C696        C738   1.513       .  S
C701        C702   1.532       .  S
C701        C707   1.526       .  S
C701        C705   1.536       .  S
C701        C770   1.504       .  S
C702        H709   1.086       .  S
C702        C703   1.361       .  D
C703        C704   1.575       .  S
C704        C708   1.563       .  S
C704        C706   1.531       .  S
C704        H710   1.111       .  S
C705        H711   1.085       .  S
C705        C706   1.369       .  D
C706        C757   1.471       .  S
C707        H712   1.077       .  S
C707        C708   1.360       .  D
C708        C736   1.515       .  S
C713        C714   1.526       .  S
C713        C719   1.527       .  S
C713        C717   1.540       .  S
C713        C773   1.500       .  S
C714        H721   1.075       .  S
C714        C715   1.363       .  D
C715        C737   1.517       .  S
C715        C716   1.561       .  S
C716        C720   1.573       .  S
C716        C718   1.535       .  S
C716        H722   1.111       .  S
C717        H723   1.086       .  S
C717        C718   1.369       .  D
C718        C753   1.473       .  S
C719        H724   1.087       .  S
C719        C720   1.354       .  D
O725        V733   1.933       .  S
O725       C1823   1.270       .  A
O726        V733   1.929       .  S
O726        C736   1.272       .  A
O727        V733   1.930       .  S
O727        C737   1.272       .  A
O728        V733   1.937       .  S
O728       C1826   1.271       .  A
O729        V734   1.932       .  S
O729        C738   1.272       .  A
O730        V734   1.933       .  S
O730       C1825   1.270   1_455  A
O731        V734   1.935       .  S
O731       C1824   1.271   1_455  A
O732        V734   1.923       .  S
O732        C735   1.271       .  A
V733       V1822   2.081       .  T
V734       V1821   2.081   1_455  T
C735       O1813   1.269   1_455  A
C736       O1819   1.270       .  A
C737       O1818   1.271       .  A
C738       O1816   1.269   1_455  A
O739        V747   1.890       .  S
O739        C749   1.261       .  A
O740        V747   1.894       .  S
O740        C750   1.264       .  A
O741        V747   1.893       .  S
O741        C751   1.263       .  A
O742        V747   1.891       .  S
O742        C752   1.260       .  A
O743        V748   1.890       .  S
O743        C752   1.264       .  A
O744        V748   1.897       .  S
O744        C751   1.263       .  A
O745        V748   1.885       .  S
O745        C750   1.259       .  A
O746        V748   1.879       .  S
O746        C749   1.261       .  A
V747        V748   2.090       .  T
C749        C777   1.459       .  S
C750        C758   1.459       .  S
C751        C754   1.466       .  S
C752        C782   1.468       .  S
C753        H755   1.087       .  S
C753        C754   1.341       .  D
C754        H756   1.086       .  S
C757        H759   1.087       .  S
C757        C758   1.337       .  D
C758        H760   1.085       .  S
C761        H763   1.087       .  S
C761        C762   1.334       .  D
C762        H764   1.088       .  S
C765        H767   1.085       .  S
C765        C766   1.340       .  D
C766        H768   1.087       .  S
C769        H771   1.086       .  S
C769        C770   1.336       .  D
C770        H772   1.083       .  S
C773        H775   1.088       .  S
C773        C774   1.333       .  D
C774        H776   1.087       .  S
C777        H779   1.083       .  S
C777        C778   1.333       .  D
C778        H780   1.088       .  S
C781        H783   1.088       .  S
C781        C782   1.330       .  D
C782        H784   1.082       .  S
C785        H787   1.088       .  S
C785        C786   1.330       .  D
C786        H788   1.083       .  S
C789        H791   1.086       .  S
C789        C790   1.346       .  D
C790        H792   1.085       .  S
C793        H795   1.079       .  S
C793        C794   1.336       .  D
C794        H796   1.087       .  S
C797        H799   1.087       .  S
C797        C798   1.332       .  D
C798        H800   1.087       .  S
C801        H803   1.087       .  S
C801        C802   1.338       .  D
C802        H804   1.083       .  S
C805        H807   1.087       .  S
C805        C806   1.345       .  D
C806        H808   1.085       .  S
C809        H811   1.087       .  S
C809        C810   1.331       .  D
C810        H812   1.086       .  S
C813        H815   1.088       .  S
C813        C814   1.325       .  D
C814        H816   1.082       .  S
O817        V825   1.958       .  S
O817        C827   1.286       .  A
O818       V1369   1.962       .  S
O818        C828   1.287       .  A
O819       V1913   1.857   1_455  S
O819        C829   1.247       .  A
O820        C830   1.245       .  A
O821       V1914   1.966       .  S
O821        C830   1.288       .  A
O822        C829   1.284       .  A
O823        V826   1.863       .  S
O823        C828   1.246       .  A
O824       V1370   1.867       .  S
O824        C827   1.247       .  A
V825       O1362   1.962   1_565  S
V825       O1907   1.857       .  S
V825       V1370   2.079       .  T
V826       O1909   1.964       .  S
V826       O1368   1.864   1_455  S
V826       V1369   2.079       .  T
C827        C861   1.497       .  S
C828        C897   1.499       .  S
C829        C956   1.494       .  S
C830        C992   1.501       .  S
O831        V839   1.961   1_565  S
O831        C841   1.287       .  A
O832       V1383   1.961       .  S
O832        C842   1.287       .  A
O833        C843   1.247       .  A
O834       V1927   1.874   1_565  S
O834        C844   1.248       .  A
O835        C844   1.288       .  A
O836       V1928   1.958       .  S
O836        C843   1.284       .  A
O837        V840   1.865       .  S
O837        C842   1.247       .  A
O838       V1384   1.866       .  S
O838        C841   1.246   1_545  A
V839       O1376   1.963       .  S
V839       O1922   1.859   1_545  S
V839       V1384   2.079       .  T
V840       O1924   1.962   1_455  S
V840       O1382   1.862   1_455  S
V840       V1383   2.079       .  T
C841        C878   1.499       .  S
C842        C890   1.499       .  S
C843        C975   1.493       .  S
C844        C963   1.508       .  S
O845        V853   1.890       .  S
O845        C855   1.263       .  A
O846        C856   1.262       .  A
O847        V853   1.875       .  S
O847        C857   1.258       .  A
O848        C858   1.258       .  A
O849        C858   1.266       .  A
O850        V854   1.888   1_556  S
O850        C857   1.262       .  A
O851        C856   1.260       .  A
O852        V854   1.876   1_556  S
O852        C855   1.257       .  A
V853        V854   2.092   1_556  T
C855       C1086   1.453       .  S
C856       C1078   1.454       .  S
C857       C1074   1.445       .  S
C858       C1081   1.461       .  S
C859        C860   1.527       .  S
C859        C865   1.535       .  S
C859        C863   1.532       .  S
C859       C1065   1.496       .  S
C860        H867   1.087       .  S
C860        C861   1.357       .  D
C861        C862   1.581       .  S
C862        C866   1.566       .  S
C862        C864   1.539       .  S
C862        H868   1.111       .  S
C863        H869   1.085       .  S
C863        C864   1.365       .  D
C864       C1070   1.484       .  S
C865        H870   1.086       .  S
C865        C866   1.365       .  D
C866        C919   1.514       .  S
C871        C872   1.530       .  S
C871        C877   1.531       .  S
C871        C875   1.525       .  S
C871       C1057   1.499       .  S
C872        H879   1.081       .  S
C872        C873   1.361       .  D
C873        C918   1.521       .  S
C873        C874   1.569       .  S
C874        C878   1.578       .  S
C874        C876   1.544       .  S
C874        H880   1.110       .  S
C875        H881   1.084       .  S
C875        C876   1.370       .  D
C876       C1061   1.481       .  S
C877        H882   1.087       .  S
C877        C878   1.357       .  D
C883        C884   1.536       .  S
C883        C889   1.529       .  S
C883        C887   1.526       .  S
C883       C1053   1.489       .  S
C884        H891   1.085       .  S
C884        C885   1.367       .  D
C885        C920   1.514       .  S
C885        C886   1.564       .  S
C886        C890   1.580       .  S
C886        C888   1.532       .  S
C886        H892   1.111       .  S
C887        H893   1.086       .  S
C887        C888   1.358       .  D
C888       C1077   1.466       .  S
C889        H894   1.087       .  S
C889        C890   1.358       .  D
C895        C896   1.531       .  S
C895        C901   1.533       .  S
C895        C899   1.520       .  S
C895       C1050   1.498       .  S
C896        H903   1.087       .  S
C896        C897   1.359       .  D
C897        C898   1.579       .  S
C898        C902   1.566       .  S
C898        C900   1.535       .  S
C898        H904   1.111       .  S
C899        H905   1.086       .  S
C899        C900   1.364       .  D
C900       C1073   1.465       .  S
C901        H906   1.078       .  S
C901        C902   1.367       .  D
C902        C917   1.529       .  S
O907        V915   1.941   1_556  S
O907        C917   1.276       .  A
O909        V915   1.925   1_556  S
O910        C920   1.272       .  A
O912        V916   1.930       .  S
O912        C919   1.272       .  A
O913        C918   1.272       .  A
O914        V916   1.935       .  S
O921        C931   1.263       .  A
O922        V929   1.900       .  S
O922        C932   1.264       .  A
O923        C933   1.265       .  A
O924        V929   1.890       .  S
O924        C934   1.263       .  A
O925        V930   1.889       .  S
O925        C934   1.260       .  A
O926        C933   1.259       .  A
O927        V930   1.895       .  S
O927        C932   1.263       .  A
O928        C931   1.265       .  A
V929        V930   2.091       .  T
C931       C1041   1.471       .  S
C932       C1069   1.467       .  S
C933       C1062   1.458       .  S
C934       C1046   1.458       .  S
O935        V943   1.886       .  S
O935        C945   1.260       .  A
O936        V943   1.898       .  S
O936        C946   1.262       .  A
O937        V943   1.894       .  S
O937        C947   1.260       .  A
O938        V943   1.891       .  S
O938        C948   1.261       .  A
O939        V944   1.887       .  S
O939        C948   1.261       .  A
O940        V944   1.881       .  S
O940        C947   1.260       .  A
O941        V944   1.883       .  S
O941        C946   1.263       .  A
O942        V944   1.885       .  S
O942        C945   1.261       .  A
V943        V944   2.090       .  T
C945       C1066   1.464       .  S
C946       C1033   1.465       .  S
C947       C1037   1.446       .  S
C948       C1058   1.459       .  S
C949        C950   1.532       .  S
C949        C955   1.533       .  S
C949        C953   1.530       .  S
C949       C1085   1.492       .  S
C950        H957   1.086       .  S
C950        C951   1.360       .  D
C951       C1007   1.505       .  S
C951        C952   1.556       .  S
C952        C956   1.574       .  S
C952        C954   1.529       .  S
C952        H958   1.111       .  S
C953        H959   1.086       .  S
C953        C954   1.366       .  D
C954       C1038   1.464       .  S
C955        H960   1.087       .  S
C955        C956   1.359       .  D
C961        C962   1.535       .  S
C961        C967   1.520       .  S
C961        C965   1.530       .  S
C961       C1082   1.498       .  S
C962        H969   1.086       .  S
C962        C963   1.361       .  D
C963        C964   1.580       .  S
C964        C968   1.572       .  S
C964        C966   1.543       .  S
C964        H970   1.110       .  S
C965        H971   1.087       .  S
C965        C966   1.360       .  D
C966       C1034   1.463       .  S
C967        H972   1.075       .  S
C967        C968   1.358       .  D
C968       C1010   1.521       .  S
C973        C974   1.532       .  S
C973        C979   1.531       .  S
C973        C977   1.538       .  S
C973       C1042   1.504       .  S
C974        H981   1.086       .  S
C974        C975   1.360       .  D
C975        C976   1.571       .  S
C976        C980   1.556       .  S
C976        C978   1.534       .  S
C976        H982   1.111       .  S
C977        H983   1.085       .  S
C977        C978   1.372       .  D
C978       C1029   1.475       .  S
C979        H984   1.076       .  S
C979        C980   1.359       .  D
C980       C1008   1.513       .  S
C985        C986   1.527       .  S
C985        C991   1.530       .  S
C985        C989   1.532       .  S
C985       C1045   1.495       .  S
C986        H993   1.078       .  S
C986        C987   1.362       .  D
C987       C1009   1.519       .  S
C987        C988   1.566       .  S
C988        C992   1.581       .  S
C988        C990   1.532       .  S
C988        H994   1.111       .  S
C989        H995   1.085       .  S
C989        C990   1.364       .  D
C990       C1025   1.468       .  S
C991        H996   1.086       .  S
C991        C992   1.358       .  D
O997       V1005   1.932       .  S
O997       C2095   1.269       .  A
O998       V1005   1.926       .  S
O998       C1008   1.271       .  A
O999       V1005   1.932       .  S
O999       C1009   1.273       .  A
O1000      V1005   1.939       .  S
O1000      C2098   1.272       .  A
O1001      V1006   1.935       .  S
O1001      C1010   1.273       .  A
O1002      V1006   1.933       .  S
O1002      C2097   1.269   1_455  A
O1003      V1006   1.932       .  S
O1003      C2096   1.270   1_455  A
O1004      V1006   1.919       .  S
O1004      C1007   1.270       .  A
V1005      V2094   2.081       .  T
V1006      V2093   2.081   1_455  T
C1007      O2085   1.268   1_455  A
C1008      O2091   1.270       .  A
C1009      O2090   1.270       .  A
C1010      O2088   1.271   1_455  A
O1011      V1019   1.898       .  S
O1011      C1021   1.263       .  A
O1012      V1019   1.900       .  S
O1012      C1022   1.266       .  A
O1013      V1019   1.886       .  S
O1013      C1023   1.262       .  A
O1014      V1019   1.885       .  S
O1014      C1024   1.258       .  A
O1015      V1020   1.881       .  S
O1015      C1024   1.263       .  A
O1016      V1020   1.888       .  S
O1016      C1023   1.261       .  A
O1017      V1020   1.888       .  S
O1017      C1022   1.260       .  A
O1018      V1020   1.882       .  S
O1018      C1021   1.261       .  A
V1019      V1020   2.090       .  T
C1021      C1049   1.461       .  S
C1022      C1030   1.465       .  S
C1023      C1026   1.456       .  S
C1024      C1054   1.458       .  S
C1025      H1027   1.087       .  S
C1025      C1026   1.339       .  D
C1026      H1028   1.085       .  S
C1029      H1031   1.087       .  S
C1029      C1030   1.338       .  D
C1030      H1032   1.085       .  S
C1033      H1035   1.087       .  S
C1033      C1034   1.337       .  D
C1034      H1036   1.087       .  S
C1037      H1039   1.086       .  S
C1037      C1038   1.335       .  D
C1038      H1040   1.087       .  S
C1041      H1043   1.086       .  S
C1041      C1042   1.342       .  D
C1042      H1044   1.089       .  S
C1045      H1047   1.081       .  S
C1045      C1046   1.335       .  D
C1046      H1048   1.087       .  S
C1049      H1051   1.079       .  S
C1049      C1050   1.334       .  D
C1050      H1052   1.088       .  S
C1053      H1055   1.088       .  S
C1053      C1054   1.328       .  D
C1054      H1056   1.083       .  S
C1057      H1059   1.087       .  S
C1057      C1058   1.336       .  D
C1058      H1060   1.081       .  S
C1061      H1063   1.087       .  S
C1061      C1062   1.342       .  D
C1062      H1064   1.084       .  S
C1065      H1067   1.087       .  S
C1065      C1066   1.335       .  D
C1066      H1068   1.085   1_565  S
C1069      H1071   1.085       .  S
C1069      C1070   1.346       .  D
C1070      H1072   1.086       .  S
C1073      H1075   1.086       .  S
C1073      C1074   1.338       .  D
C1074      H1076   1.087       .  S
C1077      H1079   1.087       .  S
C1077      C1078   1.342       .  D
C1078      H1080   1.086       .  S
C1081      H1083   1.087       .  S
C1081      C1082   1.333       .  D
C1082      H1084   1.086       .  S
C1085      H1087   1.087       .  S
C1085      C1086   1.330       .  D
C1086      H1088   1.084       .  S
O1089      V1097   1.955   1_655  S
O1089      C1099   1.285       .  A
O1090      C1100   1.285       .  A
O1091      C1101   1.247       .  A
O1092      V1641   1.854   1_545  S
O1092      C1102   1.244       .  A
O1093      C1102   1.285   1_455  A
O1094      V1642   1.963       .  S
O1094      C1101   1.286       .  A
O1095      V1098   1.868   1_545  S
O1095      C1100   1.248       .  A
O1096      C1099   1.245       .  A
V1097      O1636   1.857       .  S
V1098      O1638   1.957       .  S
C1099      C1133   1.488       .  S
C1100      C1169   1.497       .  S
C1101      C1228   1.500       .  S
C1102      C1264   1.487       .  S
O1103      V1111   1.959   1_655  S
O1103      C1113   1.285       .  A
O1104      C1114   1.286       .  A
O1105      V1655   1.866   1_545  S
O1105      C1115   1.246       .  A
O1106      C1116   1.249       .  A
O1107      V1656   1.959       .  S
O1107      C1116   1.285       .  A
O1108      C1115   1.287       .  A
O1109      V1112   1.871       .  S
O1109      C1114   1.249       .  A
O1110      C1113   1.251       .  A
V1111      O1649   1.866   1_455  S
V1112      O1651   1.957   1_545  S
C1113      C1150   1.506       .  S
C1114      C1162   1.502       .  S
C1115      C1247   1.499       .  S
C1116      C1235   1.500       .  S
O1117      V1125   1.895       .  S
O1117      C1127   1.260       .  A
O1118      V1397   1.883   1_554  S
O1118      C1128   1.262       .  A
O1119      V1125   1.885       .  S
O1119      C1129   1.261       .  A
O1120      V1397   1.883   1_554  S
O1120      C1130   1.263       .  A
O1121      V1398   1.886   1_554  S
O1121      C1130   1.259       .  A
O1122      V1126   1.888       .  S
O1122      C1129   1.261       .  A
O1123      V1398   1.901   1_554  S
O1123      C1128   1.264       .  A
O1124      V1126   1.886       .  S
O1124      C1127   1.264       .  A
V1125      O1390   1.885       .  S
V1125      O1392   1.879       .  S
V1125      V1126   2.087       .  T
V1126      O1393   1.893       .  S
V1126      O1395   1.893       .  S
C1127      C1358   1.464       .  S
C1128      C1350   1.467       .  S
C1129      C1346   1.451       .  S
C1130      C1353   1.458       .  S
C1131      C1132   1.521       .  S
C1131      C1137   1.531       .  S
C1131      C1135   1.529       .  S
C1131      C1337   1.481       .  S
C1132      H1139   1.087       .  S
C1132      C1133   1.354       .  D
C1133      C1134   1.580       .  S
C1134      C1138   1.561       .  S
C1134      C1136   1.536       .  S
C1134      H1140   1.110       .  S
C1135      H1141   1.087       .  S
C1135      C1136   1.353       .  D
C1136      C1342   1.460       .  S
C1137      H1142   1.076       .  S
C1137      C1138   1.363       .  D
C1138      C1191   1.509       .  S
C1143      C1144   1.535       .  S
C1143      C1149   1.532       .  S
C1143      C1147   1.525       .  S
C1143      C1329   1.503       .  S
C1144      H1151   1.085       .  S
C1144      C1145   1.367       .  D
C1145      C1190   1.514       .  S
C1145      C1146   1.566       .  S
C1146      C1150   1.581       .  S
C1146      C1148   1.538       .  S
C1146      H1152   1.110       .  S
C1147      H1153   1.085       .  S
C1147      C1148   1.359       .  D
C1148      C1333   1.478       .  S
C1149      H1154   1.086       .  S
C1149      C1150   1.364       .  D
C1155      C1156   1.526       .  S
C1155      C1161   1.537       .  S
C1155      C1159   1.535       .  S
C1155      C1325   1.502       .  S
C1156      H1163   1.078       .  S
C1156      C1157   1.360       .  D
C1157      C1192   1.512       .  S
C1157      C1158   1.565       .  S
C1158      C1162   1.575       .  S
C1158      C1160   1.537       .  S
C1158      H1164   1.110       .  S
C1159      H1165   1.087       .  S
C1159      C1160   1.359       .  D
C1160      C1349   1.467       .  S
C1161      H1166   1.086       .  S
C1161      C1162   1.363       .  D
C1167      C1168   1.528       .  S
C1167      C1173   1.535       .  S
C1167      C1171   1.520       .  S
C1167      C1322   1.490       .  S
C1168      H1175   1.087       .  S
C1168      C1169   1.360       .  D
C1169      C1170   1.581       .  S
C1170      C1174   1.566       .  S
C1170      C1172   1.536       .  S
C1170      H1176   1.110       .  S
C1171      H1177   1.086       .  S
C1171      C1172   1.358       .  D
C1172      C1345   1.471       .  S
C1173      H1178   1.086       .  S
C1173      C1174   1.366       .  D
C1174      C1189   1.514       .  S
O1179      V1187   1.926       .  S
O1179      C1189   1.271       .  A
O1180      V1459   1.941   1_554  S
O1180      C1734   1.272   1_545  A
O1181      V1187   1.937       .  S
O1181      C1735   1.270   1_545  A
O1182      V1459   1.929   1_554  S
O1182      C1192   1.272       .  A
O1183      V1460   1.937   1_554  S
O1183      C1736   1.270       .  A
O1184      V1188   1.927       .  S
O1184      C1191   1.271       .  A
O1185      V1460   1.927   1_554  S
O1185      C1190   1.272       .  A
O1186      V1188   1.938       .  S
O1186      C1733   1.270       .  A
V1187      O1452   1.940       .  S
V1187      O1454   1.938       .  S
V1187      V1732   2.081   1_545  T
V1188      O1455   1.928       .  S
V1188      O1457   1.931       .  S
V1188      V1731   2.081       .  T
C1189      O1730   1.270   1_545  A
C1190      O1724   1.270       .  A
C1191      O1725   1.268       .  A
C1192      O1727   1.269   1_545  A
O1193      V1473   1.885   1_554  S
O1193      C1203   1.262       .  A
O1194      V1201   1.888       .  S
O1194      C1204   1.259       .  A
O1195      V1473   1.892   1_554  S
O1195      C1205   1.262       .  A
O1196      V1201   1.900       .  S
O1196      C1206   1.267       .  A
O1197      V1202   1.885       .  S
O1197      C1206   1.258       .  A
O1198      V1474   1.891   1_554  S
O1198      C1205   1.262       .  A
O1199      V1202   1.890       .  S
O1199      C1204   1.266       .  A
O1200      V1474   1.887   1_554  S
O1200      C1203   1.259       .  A
V1201      O1465   1.884       .  S
V1201      O1467   1.898       .  S
V1201      V1202   2.084       .  T
V1202      O1470   1.884       .  S
V1202      O1472   1.903       .  S
C1203      C1313   1.454       .  S
C1204      C1341   1.460       .  S
C1205      C1334   1.459       .  S
C1206      C1318   1.458       .  S
O1207      V1215   1.870       .  S
O1207      C1217   1.260       .  A
O1208      V1215   1.884       .  S
O1208      C1218   1.256       .  A
O1209      V1215   1.901       .  S
O1209      C1219   1.266       .  A
O1210      V1215   1.902       .  S
O1210      C1220   1.265       .  A
O1211      V1216   1.881       .  S
O1211      C1220   1.261       .  A
O1212      V1216   1.886       .  S
O1212      C1219   1.259       .  A
O1213      V1216   1.885       .  S
O1213      C1218   1.267       .  A
O1214      V1216   1.892       .  S
O1214      C1217   1.260       .  A
V1215      V1216   2.086       .  T
C1217      C1338   1.453       .  S
C1218      C1305   1.460       .  S
C1219      C1309   1.461       .  S
C1220      C1330   1.476       .  S
C1221      C1222   1.526       .  S
C1221      C1227   1.533       .  S
C1221      C1225   1.537       .  S
C1221      C1357   1.496       .  S
C1222      H1229   1.079       .  S
C1222      C1223   1.356       .  D
C1223      C1279   1.513       .  S
C1223      C1224   1.563       .  S
C1224      C1228   1.576       .  S
C1224      C1226   1.534       .  S
C1224      H1230   1.111       .  S
C1225      H1231   1.085       .  S
C1225      C1226   1.370       .  D
C1226      C1310   1.475       .  S
C1227      H1232   1.086       .  S
C1227      C1228   1.360       .  D
C1233      C1234   1.533       .  S
C1233      C1239   1.533       .  S
C1233      C1237   1.516       .  S
C1233      C1354   1.493       .  S
C1234      H1241   1.086       .  S
C1234      C1235   1.362       .  D
C1235      C1236   1.578       .  S
C1236      C1240   1.563       .  S
C1236      C1238   1.542       .  S
C1236      H1242   1.110       .  S
C1237      H1243   1.088       .  S
C1237      C1238   1.350       .  D
C1238      C1306   1.453       .  S
C1239      H1244   1.078       .  S
C1239      C1240   1.366       .  D
C1240      C1282   1.515       .  S
C1245      C1246   1.527       .  S
C1245      C1251   1.526       .  S
C1245      C1249   1.533       .  S
C1245      C1314   1.492       .  S
C1246      H1253   1.086       .  S
C1246      C1247   1.356       .  D
C1247      C1248   1.581       .  S
C1248      C1252   1.563       .  S
C1248      C1250   1.534       .  S
C1248      H1254   1.111       .  S
C1249      H1255   1.086       .  S
C1249      C1250   1.361       .  D
C1250      C1301   1.469       .  S
C1251      H1256   1.075       .  S
C1251      C1252   1.364       .  D
C1252      C1280   1.512       .  S
C1257      C1258   1.527       .  S
C1257      C1263   1.527       .  S
C1257      C1261   1.539       .  S
C1257      C1317   1.501       .  S
C1258      H1265   1.076       .  S
C1258      C1259   1.363       .  D
C1259      C1281   1.517       .  S
C1259      C1260   1.560       .  S
C1260      C1264   1.569       .  S
C1260      C1262   1.537       .  S
C1260      H1266   1.111       .  S
C1261      H1267   1.085       .  S
C1261      C1262   1.374       .  D
C1262      C1297   1.480       .  S
C1263      H1268   1.087       .  S
C1263      C1264   1.353       .  D
O1269      V1277   1.926       .  S
O1270      V1277   1.926       .  S
O1270      C1280   1.271       .  A
O1271      V1277   1.931       .  S
O1271      C1281   1.272       .  A
O1272      V1277   1.935       .  S
O1273      V1278   1.927       .  S
O1273      C1282   1.271       .  A
O1274      V1278   1.935       .  S
O1275      V1278   1.936       .  S
O1276      V1278   1.931       .  S
O1276      C1279   1.273       .  A
O1283      V1291   1.881       .  S
O1283      C1293   1.256       .  A
O1284      V1291   1.877       .  S
O1284      C1294   1.259       .  A
O1285      V1291   1.910       .  S
O1285      C1295   1.267       .  A
O1286      V1291   1.906       .  S
O1286      C1296   1.268       .  A
O1287      V1292   1.883       .  S
O1287      C1296   1.258       .  A
O1288      V1292   1.882       .  S
O1288      C1295   1.258       .  A
O1289      V1292   1.903       .  S
O1289      C1294   1.265       .  A
O1290      V1292   1.887       .  S
O1290      C1293   1.265       .  A
V1291      V1292   2.090       .  T
C1293      C1321   1.458       .  S
C1294      C1302   1.462       .  S
C1295      C1298   1.465       .  S
C1296      C1326   1.465       .  S
C1297      H1299   1.086       .  S
C1297      C1298   1.338       .  D
C1298      H1300   1.085       .  S
C1301      H1303   1.087       .  S
C1301      C1302   1.345       .  D
C1302      H1304   1.085       .  S
C1305      H1307   1.087       .  S
C1305      C1306   1.328       .  D
C1306      H1308   1.088       .  S
C1309      H1311   1.085       .  S
C1309      C1310   1.338       .  D
C1310      H1312   1.087       .  S
C1313      H1315   1.087       .  S
C1313      C1314   1.335       .  D
C1314      H1316   1.083       .  S
C1317      H1319   1.088       .  S
C1317      C1318   1.333       .  D
C1318      H1320   1.086       .  S
C1321      H1323   1.082       .  S
C1321      C1322   1.326       .  D
C1322      H1324   1.088       .  S
C1325      H1327   1.081       .  S
C1325      C1326   1.334       .  D
C1326      H1328   1.087       .  S
C1329      H1331   1.087       .  S
C1329      C1330   1.334       .  D
C1330      H1332   1.081       .  S
C1333      H1335   1.086       .  S
C1333      C1334   1.346       .  D
C1334      H1336   1.085       .  S
C1337      H1339   1.078       .  S
C1337      C1338   1.337       .  D
C1338      H1340   1.087       .  S
C1341      H1343   1.087       .  S
C1341      C1342   1.332       .  D
C1342      H1344   1.088       .  S
C1345      H1347   1.086       .  S
C1345      C1346   1.343       .  D
C1346      H1348   1.086       .  S
C1349      H1351   1.087       .  S
C1349      C1350   1.340       .  D
C1350      H1352   1.086       .  S
C1353      H1355   1.081       .  S
C1353      C1354   1.329       .  D
C1354      H1356   1.088       .  S
C1357      H1359   1.084       .  S
C1357      C1358   1.336       .  D
C1358      H1360   1.086       .  S
O1361      V1369   1.961   1_655  S
O1361      C1371   1.288       .  A
O1362      C1372   1.286       .  A
O1363      C1373   1.245       .  A
O1364      V1913   1.864   1_545  S
O1364      C1374   1.247       .  A
O1365      C1374   1.286       .  A
O1366      V1914   1.960       .  S
O1366      C1373   1.286       .  A
O1367      V1370   1.867       .  S
O1367      C1372   1.248   1_565  A
O1368      C1371   1.245       .  A
V1369      O1908   1.860       .  S
V1370      O1910   1.951       .  S
C1371      C1405   1.497       .  S
C1372      C1441   1.503       .  S
C1373      C1500   1.494       .  S
C1374      C1536   1.498       .  S
O1375      V1383   1.958   1_655  S
O1375      C1385   1.286       .  A
O1376      C1386   1.288       .  A
O1377      V1927   1.868   1_655  S
O1377      C1387   1.247       .  A
O1378      C1388   1.247       .  A
O1379      V1928   1.960       .  S
O1379      C1388   1.287       .  A
O1380      C1387   1.288       .  A
O1381      V1384   1.869       .  S
O1381      C1386   1.247       .  A
O1382      C1385   1.246       .  A
V1383      O1921   1.863   1_455  S
V1384      O1923   1.962   1_545  S
C1385      C1422   1.496       .  S
C1386      C1434   1.501       .  S
C1387      C1519   1.502       .  S
C1388      C1507   1.499       .  S
O1389      V1397   1.882       .  S
O1389      C1399   1.260       .  A
O1390      C1400   1.265       .  A
O1391      V1397   1.882       .  S
O1391      C1401   1.260       .  A
O1392      C1402   1.262       .  A
O1393      C1402   1.261       .  A
O1394      V1398   1.886       .  S
O1394      C1401   1.258       .  A
O1395      C1400   1.261       .  A
O1396      V1398   1.889       .  S
O1396      C1399   1.260       .  A
V1397      V1398   2.090       .  T
C1399      C1630   1.459       .  S
C1400      C1622   1.464       .  S
C1401      C1618   1.442       .  S
C1402      C1625   1.459       .  S
C1403      C1404   1.524       .  S
C1403      C1409   1.534       .  S
C1403      C1407   1.522       .  S
C1403      C1609   1.483       .  S
C1404      H1411   1.087       .  S
C1404      C1405   1.356       .  D
C1405      C1406   1.585       .  S
C1406      C1410   1.569       .  S
C1406      C1408   1.535       .  S
C1406      H1412   1.110       .  S
C1407      H1413   1.086       .  S
C1407      C1408   1.357       .  D
C1408      C1614   1.471       .  S
C1409      H1414   1.086       .  S
C1409      C1410   1.367       .  D
C1410      C1463   1.516       .  S
C1415      C1416   1.527       .  S
C1415      C1421   1.529       .  S
C1415      C1419   1.525       .  S
C1415      C1601   1.495       .  S
C1416      H1423   1.078       .  S
C1416      C1417   1.363       .  D
C1417      C1462   1.521       .  S
C1417      C1418   1.568       .  S
C1418      C1422   1.577       .  S
C1418      C1420   1.543       .  S
C1418      H1424   1.111       .  S
C1419      H1425   1.082       .  S
C1419      C1420   1.368       .  D
C1420      C1605   1.481       .  S
C1421      H1426   1.087       .  S
C1421      C1422   1.357       .  D
C1427      C1428   1.524       .  S
C1427      C1433   1.529       .  S
C1427      C1431   1.530       .  S
C1427      C1597   1.494       .  S
C1428      H1435   1.068       .  S
C1428      C1429   1.361       .  D
C1429      C1464   1.520       .  S
C1429      C1430   1.572       .  S
C1430      C1434   1.584       .  S
C1430      C1432   1.537       .  S
C1430      H1436   1.110       .  S
C1431      H1437   1.087       .  S
C1431      C1432   1.353       .  D
C1432      C1621   1.461       .  S
C1433      H1438   1.086       .  S
C1433      C1434   1.359       .  D
C1439      C1440   1.535       .  S
C1439      C1445   1.535       .  S
C1439      C1443   1.527       .  S
C1439      C1594   1.499       .  S
C1440      H1447   1.087       .  S
C1440      C1441   1.361       .  D
C1441      C1442   1.577       .  S
C1442      C1446   1.560       .  S
C1442      C1444   1.529       .  S
C1442      H1448   1.111       .  S
C1443      H1449   1.086       .  S
C1443      C1444   1.365       .  D
C1444      C1617   1.462       .  S
C1445      H1450   1.086       .  S
C1445      C1446   1.365       .  D
C1446      C1461   1.514       .  S
O1451      V1459   1.926       .  S
O1451      C1461   1.272       .  A
O1452      C2006   1.271   1_545  A
O1453      V1459   1.930       .  S
O1453      C2007   1.269   1_545  A
O1454      C1464   1.274       .  A
O1455      C2008   1.269       .  A
O1456      V1460   1.932       .  S
O1456      C1463   1.273       .  A
O1457      C1462   1.272       .  A
O1458      V1460   1.934       .  S
O1458      C2005   1.269       .  A
V1459      V2004   2.081   1_545  T
V1460      V2003   2.081       .  T
C1461      O2002   1.269   1_545  A
C1462      O1996   1.272       .  A
C1463      O1997   1.269       .  A
C1464      O1999   1.270   1_545  A
O1465      C1475   1.262       .  A
O1466      V1473   1.882       .  S
O1466      C1476   1.260       .  A
O1467      C1477   1.263       .  A
O1468      V1473   1.894       .  S
O1468      C1478   1.264       .  A
O1469      V1474   1.890       .  S
O1469      C1478   1.260       .  A
O1470      C1477   1.260       .  A
O1471      V1474   1.888       .  S
O1471      C1476   1.262       .  A
O1472      C1475   1.263       .  A
V1473      V1474   2.091       .  T
C1475      C1585   1.466       .  S
C1476      C1613   1.451       .  S
C1477      C1606   1.451       .  S
C1478      C1590   1.463       .  S
O1479      V1487   1.885       .  S
O1479      C1489   1.258       .  A
O1480      V1487   1.883       .  S
O1480      C1490   1.261       .  A
O1481      V1487   1.898       .  S
O1481      C1491   1.265       .  A
O1482      V1487   1.898       .  S
O1482      C1492   1.263       .  A
O1483      V1488   1.877       .  S
O1483      C1492   1.260       .  A
O1484      V1488   1.884       .  S
O1484      C1491   1.259       .  A
O1485      V1488   1.882       .  S
O1485      C1490   1.259       .  A
O1486      V1488   1.874       .  S
O1486      C1489   1.262       .  A
V1487      V1488   2.091       .  T
C1489      C1610   1.455       .  S
C1490      C1577   1.448       .  S
C1491      C1581   1.459       .  S
C1492      C1602   1.459       .  S
C1493      C1494   1.532       .  S
C1493      C1499   1.530       .  S
C1493      C1497   1.531       .  S
C1493      C1629   1.494       .  S
C1494      H1501   1.081       .  S
C1494      C1495   1.362       .  D
C1495      C1551   1.515       .  S
C1495      C1496   1.561       .  S
C1496      C1500   1.575       .  S
C1496      C1498   1.535       .  S
C1496      H1502   1.111       .  S
C1497      H1503   1.085       .  S
C1497      C1498   1.368       .  D
C1498      C1582   1.474       .  S
C1499      H1504   1.087       .  S
C1499      C1500   1.356       .  D
C1505      C1506   1.529       .  S
C1505      C1511   1.528       .  S
C1505      C1509   1.523       .  S
C1505      C1626   1.492       .  S
C1506      H1513   1.087       .  S
C1506      C1507   1.359       .  D
C1507      C1508   1.579       .  S
C1508      C1512   1.566       .  S
C1508      C1510   1.533       .  S
C1508      H1514   1.111       .  S
C1509      H1515   1.086       .  S
C1509      C1510   1.363       .  D
C1510      C1578   1.464       .  S
C1511      H1516   1.080       .  S
C1511      C1512   1.365       .  D
C1512      C1554   1.519       .  S
C1517      C1518   1.528       .  S
C1517      C1523   1.535       .  S
C1517      C1521   1.534       .  S
C1517      C1586   1.498       .  S
C1518      H1525   1.086       .  S
C1518      C1519   1.357       .  D
C1519      C1520   1.583       .  S
C1520      C1524   1.566       .  S
C1520      C1522   1.540       .  S
C1520      H1526   1.111       .  S
C1521      H1527   1.085       .  S
C1521      C1522   1.365       .  D
C1522      C1573   1.477       .  S
C1523      H1528   1.078       .  S
C1523      C1524   1.363       .  D
C1524      C1552   1.522       .  S
C1529      C1530   1.527       .  S
C1529      C1535   1.531       .  S
C1529      C1533   1.532       .  S
C1529      C1589   1.501       .  S
C1530      H1537   1.078       .  S
C1530      C1531   1.362       .  D
C1531      C1553   1.513       .  S
C1531      C1532   1.562       .  S
C1532      C1536   1.576       .  S
C1532      C1534   1.532       .  S
C1532      H1538   1.111       .  S
C1533      H1539   1.085       .  S
C1533      C1534   1.367       .  D
C1534      C1569   1.473       .  S
C1535      H1540   1.086       .  S
C1535      C1536   1.360       .  D
O1541      V1549   1.940       .  S
O1542      V1549   1.935       .  S
O1542      C1552   1.273       .  A
O1543      V1549   1.926       .  S
O1543      C1553   1.271       .  A
O1544      V1549   1.936       .  S
O1545      V1550   1.930       .  S
O1545      C1554   1.273       .  A
O1546      V1550   1.933       .  S
O1547      V1550   1.931       .  S
O1548      V1550   1.928       .  S
O1548      C1551   1.271       .  A
O1555      V1563   1.880       .  S
O1555      C1565   1.258       .  A
O1556      V1563   1.881       .  S
O1556      C1566   1.260       .  A
O1557      V1563   1.899       .  S
O1557      C1567   1.265       .  A
O1558      V1563   1.898       .  S
O1558      C1568   1.265       .  A
O1559      V1564   1.879       .  S
O1559      C1568   1.257       .  A
O1560      V1564   1.878       .  S
O1560      C1567   1.258       .  A
O1561      V1564   1.910       .  S
O1561      C1566   1.267       .  A
O1562      V1564   1.899       .  S
O1562      C1565   1.266       .  A
V1563      V1564   2.090       .  T
C1565      C1593   1.461       .  S
C1566      C1574   1.470       .  S
C1567      C1570   1.456       .  S
C1568      C1598   1.456       .  S
C1569      H1571   1.086       .  S
C1569      C1570   1.337       .  D
C1570      H1572   1.085       .  S
C1573      H1575   1.087       .  S
C1573      C1574   1.348       .  D
C1574      H1576   1.085       .  S
C1577      H1579   1.086       .  S
C1577      C1578   1.339       .  D
C1578      H1580   1.087       .  S
C1581      H1583   1.085       .  S
C1581      C1582   1.339       .  D
C1582      H1584   1.087       .  S
C1585      H1587   1.086       .  S
C1585      C1586   1.341       .  D
C1586      H1588   1.081       .  S
C1589      H1591   1.082       .  S
C1589      C1590   1.337       .  D
C1590      H1592   1.086       .  S
C1593      H1595   1.083       .  S
C1593      C1594   1.330       .  D
C1594      H1596   1.087       .  S
C1597      H1599   1.078       .  S
C1597      C1598   1.333       .  D
C1598      H1600   1.087       .  S
C1601      H1603   1.087       .  S
C1601      C1602   1.336       .  D
C1602      H1604   1.080       .  S
C1605      H1607   1.087       .  S
C1605      C1606   1.343       .  D
C1606      H1608   1.081       .  S
C1609      H1611   1.089       .  S
C1609      C1610   1.326       .  D
C1610      H1612   1.083       .  S
C1613      H1615   1.085       .  S
C1613      C1614   1.345       .  D
C1614      H1616   1.086       .  S
C1617      H1619   1.087       .  S
C1617      C1618   1.334       .  D
C1618      H1620   1.086       .  S
C1621      H1623   1.087       .  S
C1621      C1622   1.335       .  D
C1622      H1624   1.087       .  S
C1625      H1627   1.082       .  S
C1625      C1626   1.334       .  D
C1626      H1628   1.087       .  S
C1629      H1631   1.087       .  S
C1629      C1630   1.337       .  D
C1630      H1632   1.085       .  S
O1633      V1641   1.958       .  S
O1633      C1643   1.286       .  A
O1634      C1644   1.287       .  A
O1635      C1645   1.246       .  A
O1636      C1646   1.245   1_455  A
O1637      C1646   1.286       .  A
O1638      C1645   1.284       .  A
O1639      V1642   1.863       .  S
O1639      C1644   1.246       .  A
O1640      C1643   1.247       .  A
C1643      C1677   1.497       .  S
C1644      C1713   1.497       .  S
C1645      C1772   1.491       .  S
C1646      C1808   1.492       .  S
O1647      V1655   1.966       .  S
O1647      C1657   1.288       .  A
O1648      C1658   1.284       .  A
O1649      C1659   1.249       .  A
O1650      C1660   1.246       .  A
O1651      C1660   1.286       .  A
O1652      C1659   1.285       .  A
O1653      V1656   1.862       .  S
O1653      C1658   1.247       .  A
O1654      C1657   1.245       .  A
C1657      C1694   1.501       .  S
C1658      C1706   1.491       .  S
C1659      C1791   1.500       .  S
C1660      C1779   1.494       .  S
O1661      V1669   1.897       .  S
O1661      C1671   1.262       .  A
O1662      V1941   1.876   1_554  S
O1662      C1672   1.258       .  A
O1663      V1669   1.888       .  S
O1663      C1673   1.261       .  A
O1664      V1941   1.871   1_554  S
O1664      C1674   1.259       .  A
O1665      V1942   1.900   1_554  S
O1665      C1674   1.263       .  A
O1666      V1670   1.897       .  S
O1666      C1673   1.262       .  A
O1667      V1942   1.896   1_554  S
O1667      C1672   1.263       .  A
O1668      V1670   1.890       .  S
O1668      C1671   1.264       .  A
V1669      O1934   1.884       .  S
V1669      O1936   1.887       .  S
V1669      V1670   2.086       .  T
V1670      O1937   1.896       .  S
V1670      O1939   1.898       .  S
C1671      C1902   1.463       .  S
C1672      C1894   1.450       .  S
C1673      C1890   1.453       .  S
C1674      C1897   1.457       .  S
C1675      C1676   1.528       .  S
C1675      C1681   1.531       .  S
C1675      C1679   1.528       .  S
C1675      C1881   1.492       .  S
C1676      H1683   1.087       .  S
C1676      C1677   1.359       .  D
C1677      C1678   1.579       .  S
C1678      C1682   1.566       .  S
C1678      C1680   1.533       .  S
C1678      H1684   1.111       .  S
C1679      H1685   1.084       .  S
C1679      C1680   1.364       .  D
C1680      C1886   1.476       .  S
C1681      H1686   1.086       .  S
C1681      C1682   1.365       .  D
C1682      C1735   1.513       .  S
C1687      C1688   1.530       .  S
C1687      C1693   1.532       .  S
C1687      C1691   1.527       .  S
C1687      C1873   1.494       .  S
C1688      H1695   1.080       .  S
C1688      C1689   1.365       .  D
C1689      C1734   1.522       .  S
C1689      C1690   1.568       .  S
C1690      C1694   1.579       .  S
C1690      C1692   1.537       .  S
C1690      H1696   1.111       .  S
C1691      H1697   1.086       .  S
C1691      C1692   1.365       .  D
C1692      C1877   1.471       .  S
C1693      H1698   1.087       .  S
C1693      C1694   1.357       .  D
C1699      C1700   1.533       .  S
C1699      C1705   1.528       .  S
C1699      C1703   1.522       .  S
C1699      C1869   1.490       .  S
C1700      H1707   1.086       .  S
C1700      C1701   1.365       .  D
C1701      C1736   1.514       .  S
C1701      C1702   1.565       .  S
C1702      C1706   1.576       .  S
C1702      C1704   1.537       .  S
C1702      H1708   1.111       .  S
C1703      H1709   1.084       .  S
C1703      C1704   1.364       .  D
C1704      C1893   1.476       .  S
C1705      H1710   1.087       .  S
C1705      C1706   1.357       .  D
C1711      C1712   1.531       .  S
C1711      C1717   1.529       .  S
C1711      C1715   1.526       .  S
C1711      C1866   1.495       .  S
C1712      H1719   1.087       .  S
C1712      C1713   1.357       .  D
C1713      C1714   1.578       .  S
C1714      C1718   1.566       .  S
C1714      C1716   1.543       .  S
C1714      H1720   1.111       .  S
C1715      H1721   1.084       .  S
C1715      C1716   1.369       .  D
C1716      C1889   1.479       .  S
C1717      H1722   1.079       .  S
C1717      C1718   1.360       .  D
C1718      C1733   1.518       .  S
O1723      V1731   1.931       .  S
O1723      C1733   1.273       .  A
O1724      V2003   1.934   1_554  S
O1725      V1731   1.927       .  S
O1726      V2003   1.925   1_554  S
O1726      C1736   1.271       .  A
O1727      V2004   1.930   1_554  S
O1728      V1732   1.923       .  S
O1728      C1735   1.271       .  A
O1729      V2004   1.933   1_554  S
O1729      C1734   1.273       .  A
O1730      V1732   1.937       .  S
V1731      O1996   1.942       .  S
V1731      O1998   1.924       .  S
V1732      O1999   1.932       .  S
V1732      O2001   1.935       .  S
O1737      V2017   1.891       .  S
O1737      C1747   1.266       .  A
O1738      V1745   1.895       .  S
O1738      C1748   1.262       .  A
O1739      V2017   1.893       .  S
O1739      C1749   1.263       .  A
O1740      V1745   1.880       .  S
O1740      C1750   1.257       .  A
O1741      V1746   1.877       .  S
O1741      C1750   1.262       .  A
O1742      V2018   1.886   1_554  S
O1742      C1749   1.260       .  A
O1743      V1746   1.883       .  S
O1743      C1748   1.260       .  A
O1744      V2018   1.893   1_554  S
O1744      C1747   1.259       .  A
V1745      O2009   1.887       .  S
V1745      O2011   1.879       .  S
V1745      V1746   2.091       .  T
V1746      O2014   1.891       .  S
V1746      O2016   1.885       .  S
C1747      C1857   1.465       .  S
C1748      C1885   1.449       .  S
C1749      C1878   1.455       .  S
C1750      C1862   1.457       .  S
O1751      V1759   1.884       .  S
O1751      C1761   1.258       .  A
O1752      V1759   1.885       .  S
O1752      C1762   1.262       .  A
O1753      V1759   1.897       .  S
O1753      C1763   1.266       .  A
O1754      V1759   1.897       .  S
O1754      C1764   1.262       .  A
O1755      V1760   1.879       .  S
O1755      C1764   1.261       .  A
O1756      V1760   1.885       .  S
O1756      C1763   1.259       .  A
O1757      V1760   1.890       .  S
O1757      C1762   1.261       .  A
O1758      V1760   1.885       .  S
O1758      C1761   1.263       .  A
V1759      V1760   2.091       .  T
C1761      C1882   1.459       .  S
C1762      C1849   1.456       .  S
C1763      C1853   1.460       .  S
C1764      C1874   1.459       .  S
C1765      C1766   1.526       .  S
C1765      C1771   1.531       .  S
C1765      C1769   1.536       .  S
C1765      C1901   1.500       .  S
C1766      H1773   1.076       .  S
C1766      C1767   1.358       .  D
C1767      C1823   1.513       .  S
C1767      C1768   1.557       .  S
C1768      C1772   1.569       .  S
C1768      C1770   1.534       .  S
C1768      H1774   1.111       .  S
C1769      H1775   1.085       .  S
C1769      C1770   1.372       .  D
C1770      C1854   1.471       .  S
C1771      H1776   1.086       .  S
C1771      C1772   1.358       .  D
C1777      C1778   1.525       .  S
C1777      C1783   1.527       .  S
C1777      C1781   1.530       .  S
C1777      C1898   1.489       .  S
C1778      H1785   1.087       .  S
C1778      C1779   1.354       .  D
C1779      C1780   1.578       .  S
C1780      C1784   1.566       .  S
C1780      C1782   1.532       .  S
C1780      H1786   1.111       .  S
C1781      H1787   1.086       .  S
C1781      C1782   1.365       .  D
C1782      C1850   1.466       .  S
C1783      H1788   1.077       .  S
C1783      C1784   1.365       .  D
C1784      C1826   1.518       .  S
C1789      C1790   1.536       .  S
C1789      C1795   1.521       .  S
C1789      C1793   1.529       .  S
C1789      C1858   1.498       .  S
C1790      H1797   1.086       .  S
C1790      C1791   1.361       .  D
C1791      C1792   1.570       .  S
C1792      C1796   1.564       .  S
C1792      C1794   1.537       .  S
C1792      H1798   1.111       .  S
C1793      H1799   1.085       .  S
C1793      C1794   1.372       .  D
C1794      C1845   1.466       .  S
C1795      H1800   1.078       .  S
C1795      C1796   1.354       .  D
C1796      C1824   1.517       .  S
C1801      C1802   1.534       .  S
C1801      C1807   1.526       .  S
C1801      C1805   1.523       .  S
C1801      C1861   1.486       .  S
C1802      H1809   1.084       .  S
C1802      C1803   1.366       .  D
C1803      C1825   1.509       .  S
C1803      C1804   1.561       .  S
C1804      C1808   1.580       .  S
C1804      C1806   1.532       .  S
C1804      H1810   1.111       .  S
C1805      H1811   1.086       .  S
C1805      C1806   1.358       .  D
C1806      C1841   1.469       .  S
C1807      H1812   1.086       .  S
C1807      C1808   1.358       .  D
O1813      V1821   1.933       .  S
O1814      V1821   1.932       .  S
O1814      C1824   1.272       .  A
O1815      V1821   1.921       .  S
O1815      C1825   1.270       .  A
O1816      V1821   1.930       .  S
O1817      V1822   1.930       .  S
O1817      C1826   1.272       .  A
O1818      V1822   1.935       .  S
O1819      V1822   1.933       .  S
O1820      V1822   1.927       .  S
O1820      C1823   1.271       .  A
O1827      V1835   1.893       .  S
O1827      C1837   1.262       .  A
O1828      V1835   1.890       .  S
O1828      C1838   1.264       .  A
O1829      V1835   1.882       .  S
O1829      C1839   1.260       .  A
O1830      V1835   1.875       .  S
O1830      C1840   1.257       .  A
O1831      V1836   1.885       .  S
O1831      C1840   1.262       .  A
O1832      V1836   1.888       .  S
O1832      C1839   1.262       .  A
O1833      V1836   1.883       .  S
O1833      C1838   1.258       .  A
O1834      V1836   1.883       .  S
O1834      C1837   1.261       .  A
V1835      V1836   2.091       .  T
C1837      C1865   1.457       .  S
C1838      C1846   1.454       .  S
C1839      C1842   1.451       .  S
C1840      C1870   1.455       .  S
C1841      H1843   1.086       .  S
C1841      C1842   1.343       .  D
C1842      H1844   1.086       .  S
C1845      H1847   1.087       .  S
C1845      C1846   1.336       .  D
C1846      H1848   1.085       .  S
C1849      H1851   1.086       .  S
C1849      C1850   1.339       .  D
C1850      H1852   1.087       .  S
C1853      H1855   1.085       .  S
C1853      C1854   1.336       .  D
C1854      H1856   1.087       .  S
C1857      H1859   1.086       .  S
C1857      C1858   1.334       .  D
C1858      H1860   1.087       .  S
C1861      H1863   1.088       .  S
C1861      C1862   1.327       .  D
C1862      H1864   1.084       .  S
C1865      H1867   1.081       .  S
C1865      C1866   1.336       .  D
C1866      H1868   1.087       .  S
C1869      H1871   1.088       .  S
C1869      C1870   1.326       .  D
C1870      H1872   1.082       .  S
C1873      H1875   1.088       .  S
C1873      C1874   1.336       .  D
C1874      H1876   1.081       .  S
C1877      H1879   1.087       .  S
C1877      C1878   1.340       .  D
C1878      H1880   1.086       .  S
C1881      H1883   1.088       .  S
C1881      C1882   1.330       .  D
C1882      H1884   1.084       .  S
C1885      H1887   1.084       .  S
C1885      C1886   1.341       .  D
C1886      H1888   1.087       .  S
C1889      H1891   1.087       .  S
C1889      C1890   1.342       .  D
C1890      H1892   1.083       .  S
C1893      H1895   1.087       .  S
C1893      C1894   1.341       .  D
C1894      H1896   1.083       .  S
C1897      H1899   1.084       .  S
C1897      C1898   1.338       .  D
C1898      H1900   1.088       .  S
C1901      H1903   1.089       .  S
C1901      C1902   1.338       .  D
C1902      H1904   1.086       .  S
O1905      V1913   1.955       .  S
O1905      C1915   1.284       .  A
O1906      C1916   1.286       .  A
O1907      C1917   1.246       .  A
O1908      C1918   1.245       .  A
O1909      C1918   1.288       .  A
O1910      C1917   1.284       .  A
O1911      V1914   1.863       .  S
O1911      C1916   1.247       .  A
O1912      C1915   1.248       .  A
C1915      C1949   1.496       .  S
C1916      C1985   1.501       .  S
C1917      C2044   1.489       .  S
C1918      C2080   1.499   1_455  S
O1919      V1927   1.959   1_665  S
O1919      C1929   1.288       .  A
O1920      C1930   1.284       .  A
O1921      C1931   1.246       .  A
O1922      C1932   1.245       .  A
O1923      C1932   1.288       .  A
O1924      C1931   1.286       .  A
O1925      V1928   1.862       .  S
O1925      C1930   1.246       .  A
O1926      C1929   1.247       .  A
C1929      C1966   1.501       .  S
C1930      C1978   1.489       .  S
C1931      C2063   1.498       .  S
C1932      C2051   1.496       .  S
O1933      V1941   1.872       .  S
O1933      C1943   1.260       .  A
O1934      C1944   1.264       .  A
O1935      V1941   1.874       .  S
O1935      C1945   1.258       .  A
O1936      C1946   1.259       .  A
O1937      C1946   1.265       .  A
O1938      V1942   1.897       .  S
O1938      C1945   1.264       .  A
O1939      C1944   1.262       .  A
O1940      V1942   1.898       .  S
O1940      C1943   1.263       .  A
V1941      V1942   2.092       .  T
C1943      C2174   1.456       .  S
C1944      C2166   1.465       .  S
C1945      C2162   1.449       .  S
C1946      C2169   1.456       .  S
C1947      C1948   1.531       .  S
C1947      C1953   1.536       .  S
C1947      C1951   1.527       .  S
C1947      C2153   1.497       .  S
C1948      H1955   1.086       .  S
C1948      C1949   1.361       .  D
C1949      C1950   1.577       .  S
C1950      C1954   1.562       .  S
C1950      C1952   1.533       .  S
C1950      H1956   1.111       .  S
C1951      H1957   1.088       .  S
C1951      C1952   1.351       .  D
C1952      C2158   1.458       .  S
C1953      H1958   1.085       .  S
C1953      C1954   1.371       .  D
C1954      C2007   1.510       .  S
C1959      C1960   1.525       .  S
C1959      C1965   1.523       .  S
C1959      C1963   1.523       .  S
C1959      C2145   1.486       .  S
C1960      H1967   1.072       .  S
C1960      C1961   1.363       .  D
C1961      C2006   1.524       .  S
C1961      C1962   1.573       .  S
C1962      C1966   1.584       .  S
C1962      C1964   1.536       .  S
C1962      H1968   1.111       .  S
C1963      H1969   1.086       .  S
C1963      C1964   1.363       .  D
C1964      C2149   1.464       .  S
C1965      H1970   1.087       .  S
C1965      C1966   1.354       .  D
C1971      C1972   1.525       .  S
C1971      C1977   1.526       .  S
C1971      C1975   1.530       .  S
C1971      C2141   1.488       .  S
C1972      H1979   1.075       .  S
C1972      C1973   1.361       .  D
C1973      C2008   1.507       .  S
C1973      C1974   1.562       .  S
C1974      C1978   1.576       .  S
C1974      C1976   1.537       .  S
C1974      H1980   1.110       .  S
C1975      H1981   1.087       .  S
C1975      C1976   1.356       .  D
C1976      C2165   1.462       .  S
C1977      H1982   1.086       .  S
C1977      C1978   1.357       .  D
C1983      C1984   1.533       .  S
C1983      C1989   1.533       .  S
C1983      C1987   1.522       .  S
C1983      C2138   1.495       .  S
C1984      H1991   1.086       .  S
C1984      C1985   1.362       .  D
C1985      C1986   1.579       .  S
C1986      C1990   1.566       .  S
C1986      C1988   1.535       .  S
C1986      H1992   1.111       .  S
C1987      H1993   1.085       .  S
C1987      C1988   1.363       .  D
C1988      C2161   1.474       .  S
C1989      H1994   1.086       .  S
C1989      C1990   1.363       .  D
C1990      C2005   1.515       .  S
O1995      V2003   1.929       .  S
O1995      C2005   1.273       .  A
O1997      V2003   1.933       .  S
O1998      C2008   1.270       .  A
O2000      V2004   1.925       .  S
O2000      C2007   1.271       .  A
O2001      C2006   1.274       .  A
O2002      V2004   1.934       .  S
O2009      C2019   1.264       .  A
O2010      V2017   1.900   1_556  S
O2010      C2020   1.262       .  A
O2011      C2021   1.260       .  A
O2012      V2017   1.895   1_556  S
O2012      C2022   1.261       .  A
O2013      V2018   1.878       .  S
O2013      C2022   1.262       .  A
O2014      C2021   1.262       .  A
O2015      V2018   1.885       .  S
O2015      C2020   1.265       .  A
O2016      C2019   1.258       .  A
V2017      V2018   2.085   1_554  T
C2019      C2129   1.456       .  S
C2020      C2157   1.468       .  S
C2021      C2150   1.452       .  S
C2022      C2134   1.465       .  S
O2023      V2031   1.897       .  S
O2023      C2033   1.261       .  A
O2024      V2031   1.897       .  S
O2024      C2034   1.265       .  A
O2025      V2031   1.895       .  S
O2025      C2035   1.264       .  A
O2026      V2031   1.894       .  S
O2026      C2036   1.262       .  A
O2027      V2032   1.869       .  S
O2027      C2036   1.259       .  A
O2028      V2032   1.875       .  S
O2028      C2035   1.257       .  A
O2029      V2032   1.895       .  S
O2029      C2034   1.262       .  A
O2030      V2032   1.885       .  S
O2030      C2033   1.264       .  A
V2031      V2032   2.091       .  T
C2033      C2154   1.467       .  S
C2034      C2121   1.467       .  S
C2035      C2125   1.451       .  S
C2036      C2146   1.452       .  S
C2037      C2038   1.526       .  S
C2037      C2043   1.527       .  S
C2037      C2041   1.529       .  S
C2037      C2173   1.490       .  S
C2038      H2045   1.079       .  S
C2038      C2039   1.363       .  D
C2039      C2095   1.512       .  S
C2039      C2040   1.561       .  S
C2040      C2044   1.572       .  S
C2040      C2042   1.531       .  S
C2040      H2046   1.111       .  S
C2041      H2047   1.086       .  S
C2041      C2042   1.368       .  D
C2042      C2126   1.468       .  S
C2043      H2048   1.087       .  S
C2043      C2044   1.355       .  D
C2049      C2050   1.528       .  S
C2049      C2055   1.527       .  S
C2049      C2053   1.540       .  S
C2049      C2170   1.499       .  S
C2050      H2057   1.087       .  S
C2050      C2051   1.354       .  D
C2051      C2052   1.575       .  S
C2052      C2056   1.566       .  S
C2052      C2054   1.535       .  S
C2052      H2058   1.111       .  S
C2053      H2059   1.086       .  S
C2053      C2054   1.370       .  D
C2054      C2122   1.474       .  S
C2055      H2060   1.076       .  S
C2055      C2056   1.361       .  D
C2056      C2098   1.521       .  S
C2061      C2062   1.532       .  S
C2061      C2067   1.520       .  S
C2061      C2065   1.530       .  S
C2061      C2130   1.492       .  S
C2062      H2069   1.086       .  S
C2062      C2063   1.358       .  D
C2063      C2064   1.576       .  S
C2064      C2068   1.563       .  S
C2064      C2066   1.541       .  S
C2064      H2070   1.111       .  S
C2065      H2071   1.085       .  S
C2065      C2066   1.364       .  D
C2066      C2117   1.469       .  S
C2067      H2072   1.074       .  S
C2067      C2068   1.358       .  D
C2068      C2096   1.513       .  S
C2073      C2074   1.532       .  S
C2073      C2079   1.528       .  S
C2073      C2077   1.528       .  S
C2073      C2133   1.492       .  S
C2074      H2081   1.086       .  S
C2074      C2075   1.364       .  D
C2075      C2097   1.513       .  S
C2075      C2076   1.566       .  S
C2076      C2080   1.584       .  S
C2076      C2078   1.531       .  S
C2076      H2082   1.111       .  S
C2077      H2083   1.086       .  S
C2077      C2078   1.362       .  D
C2078      C2113   1.475       .  S
C2079      H2084   1.086       .  S
C2079      C2080   1.360       .  D
O2085      V2093   1.930       .  S
O2086      V2093   1.929       .  S
O2086      C2096   1.271       .  A
O2087      V2093   1.926       .  S
O2087      C2097   1.272       .  A
O2088      V2093   1.936       .  S
O2089      V2094   1.933       .  S
O2089      C2098   1.272       .  A
O2090      V2094   1.935       .  S
O2091      V2094   1.934       .  S
O2092      V2094   1.927       .  S
O2092      C2095   1.272       .  A
O2099      V2107   1.881       .  S
O2099      C2109   1.257       .  A
O2100      V2107   1.877       .  S
O2100      C2110   1.260       .  A
O2101      V2107   1.899       .  S
O2101      C2111   1.264       .  A
O2102      V2107   1.892       .  S
O2102      C2112   1.265       .  A
O2103      V2108   1.881       .  S
O2103      C2112   1.257       .  A
O2104      V2108   1.878       .  S
O2104      C2111   1.259       .  A
O2105      V2108   1.902       .  S
O2105      C2110   1.265       .  A
O2106      V2108   1.892       .  S
O2106      C2109   1.265       .  A
V2107      V2108   2.090       .  T
C2109      C2137   1.461       .  S
C2110      C2118   1.462       .  S
C2111      C2114   1.455       .  S
C2112      C2142   1.454       .  S
C2113      H2115   1.086       .  S
C2113      C2114   1.340       .  D
C2114      H2116   1.086       .  S
C2117      H2119   1.087       .  S
C2117      C2118   1.345       .  D
C2118      H2120   1.085       .  S
C2121      H2123   1.086       .  S
C2121      C2122   1.340       .  D
C2122      H2124   1.087       .  S
C2125      H2127   1.086       .  S
C2125      C2126   1.335       .  D
C2126      H2128   1.087       .  S
C2129      H2131   1.087       .  S
C2129      C2130   1.332       .  D
C2130      H2132   1.086       .  S
C2133      H2135   1.088       .  S
C2133      C2134   1.332       .  D
C2134      H2136   1.083       .  S
C2137      H2139   1.082       .  S
C2137      C2138   1.327       .  D
C2138      H2140   1.088       .  S
C2141      H2143   1.078       .  S
C2141      C2142   1.332       .  D
C2142      H2144   1.087       .  S
C2145      H2147   1.088       .  S
C2145      C2146   1.334       .  D
C2146      H2148   1.083       .  S
C2149      H2151   1.087       .  S
C2149      C2150   1.341       .  D
C2150      H2152   1.086       .  S
C2153      H2155   1.088       .  S
C2153      C2154   1.332       .  D
C2154      H2156   1.083       .  S
C2157      H2159   1.087       .  S
C2157      C2158   1.337       .  D
C2158      H2160   1.087       .  S
C2161      H2163   1.086       .  S
C2161      C2162   1.340       .  D
C2162      H2164   1.084       .  S
C2165      H2167   1.088       .  S
C2165      C2166   1.335       .  D
C2166      H2168   1.087       .  S
C2169      H2171   1.086       .  S
C2169      C2170   1.334       .  D
C2170      H2172   1.088       .  S
C2173      H2175   1.087       .  S
C2173      C2174   1.337       .  D
C2174      H2176   1.082       .  S
